/*---------------------------------------------------------------------------*\
| =========                 |                                                 |
| \\      /  F ield         | OpenFOAM: The Open Source CFD Toolbox           |
|  \\    /   O peration     | Version:  2112                                  |
|   \\  /    A nd           | Website:  www.openfoam.com                      |
|    \\/     M anipulation  |                                                 |
\*---------------------------------------------------------------------------*/
Build  : _d44c8318-20220111 OPENFOAM=2112 version=2112
Arch   : "LSB;label=32;scalar=64"
Exec   : simpleFoam -parallel -decomposeParDict system/decomposeParDict.6
Date   : Mar 14 2023
Time   : 16:56:06
Host   : ab7ed1b07f89
PID    : 544
I/O    : uncollated
Case   : /home/aimed_user/dexof_work/dir_rough_mesh_8cores_swordfish1_aoa_0
nProcs : 8
Hosts  :
(
    (ab7ed1b07f89 8)
)
Pstream initialized with:
    floatTransfer      : 0
    nProcsSimpleSum    : 0
    commsType          : nonBlocking
    polling iterations : 0
trapFpe: Floating point exception trapping enabled (FOAM_SIGFPE).
fileModificationChecking : Monitoring run-time modified files using timeStampMaster (fileModificationSkew 5, maxFileModificationPolls 20)
allowSystemOperations : Allowing user-supplied system call operations

// * * * * * * * * * * * * * * * * * * * * * * * * * * * * * * * * * * * * * //
Create time

Create mesh for time = 0


SIMPLE: convergence criteria
    field p	 tolerance 0.0001
    field U	 tolerance 0.0001
    field "(k|epsilon|omega|f|v2|nuTilda)"	 tolerance 0.0001

Reading field p

Reading field U

Reading/calculating face flux field phi

Selecting incompressible transport model Newtonian
Selecting turbulence model type RAS
Selecting RAS turbulence model kOmegaSST
Selecting patchDistMethod meshWave
RAS
{
    RASModel        kOmegaSST;
    turbulence      on;
    printCoeffs     on;
    alphaK1         0.85;
    alphaK2         1;
    alphaOmega1     0.5;
    alphaOmega2     0.856;
    gamma1          0.55555556;
    gamma2          0.44;
    beta1           0.075;
    beta2           0.0828;
    betaStar        0.09;
    a1              0.31;
    b1              1;
    c1              10;
    F3              false;
    decayControl    false;
    kInf            0;
    omegaInf        0;
}

No MRF models present

No finite volume options present

Starting time loop

forceCoeffs forceCoeffs_cl:
    p: p
    U: U
    rho: rhoInf
    Freestream density (rhoInf) set to 1027
    Not including porosity effects
    Fields will be written

forceCoeffs forceCoeffs_cd:
    p: p
    U: U
    rho: rhoInf
    Freestream density (rhoInf) set to 1027
    Not including porosity effects

forces force_computation:
    p: p
    U: U
    rho: rhoInf
    Freestream density (rhoInf) set to 1027
    Not including porosity effects

Time = 1

smoothSolver:  Solving for Ux, Initial residual = 1, Final residual = 0.060329374, No Iterations 2
smoothSolver:  Solving for Uy, Initial residual = 1, Final residual = 0.030408435, No Iterations 3
smoothSolver:  Solving for Uz, Initial residual = 1, Final residual = 0.031027064, No Iterations 3
GAMG:  Solving for p, Initial residual = 1, Final residual = 0.0048424392, No Iterations 8
GAMG:  Solving for p, Initial residual = 0.098314459, Final residual = 0.00082011249, No Iterations 2
GAMG:  Solving for p, Initial residual = 0.01115295, Final residual = 8.4730562e-05, No Iterations 4
GAMG:  Solving for p, Initial residual = 0.0026630513, Final residual = 2.414987e-05, No Iterations 3
GAMG:  Solving for p, Initial residual = 0.00064802137, Final residual = 3.3323491e-06, No Iterations 4
GAMG:  Solving for p, Initial residual = 0.00018520314, Final residual = 1.3095378e-06, No Iterations 3
time step continuity errors : sum local = 3.9871903e-08, global = 3.5559686e-09, cumulative = 3.5559686e-09
smoothSolver:  Solving for omega, Initial residual = 0.70355992, Final residual = 0.047851518, No Iterations 1
smoothSolver:  Solving for k, Initial residual = 1, Final residual = 0.090308395, No Iterations 1
ExecutionTime = 0.86 s  ClockTime = 1 s

forceCoeffs forceCoeffs_cl execute:
    Coefficients
        Cd       : 3.5936048	(pressure: 3.5721316	viscous: 0.0214732)
        Cs       : -0.00039038525	(pressure: -0.00039034276	viscous: -4.2480934e-08)
        Cl       : 0.00052605888	(pressure: 0.00052601161	viscous: 4.7271042e-08)
        CmRoll       : -1.1345188e-08	(pressure: -1.1306044e-08	viscous: -3.9143766e-11)
        CmPitch       : -2.7687758e-05	(pressure: -2.7675945e-05	viscous: -1.1813168e-08)
        CmYaw       : -8.2510226e-05	(pressure: -8.2496293e-05	viscous: -1.3933322e-08)
        Cd(f)    : 1.7968024
        Cd(r)    : 1.7968024
        Cs(f)    : -0.00027770285
        Cs(r)    : -0.0001126824
        Cl(f)    : 0.00023534168
        Cl(r)    : 0.0002907172
forceCoeffs forceCoeffs_cd execute:
    Coefficients
        Cd       : 15.265362	(pressure: 15.174146	viscous: 0.091216533)
        Cs       : -0.0016583271	(pressure: -0.0016581466	viscous: -1.804558e-07)
        Cl       : 0.0022346585	(pressure: 0.0022344577	viscous: 2.0080382e-07)
        CmRoll       : -4.8193504e-08	(pressure: -4.8027224e-08	viscous: -1.6627977e-10)
        CmPitch       : -0.00011761551	(pressure: -0.00011756533	viscous: -5.0181448e-08)
        CmYaw       : -0.00035049722	(pressure: -0.00035043803	viscous: -5.9187703e-08)
        Cd(f)    : 7.6326812
        Cd(r)    : 7.6326813
        Cs(f)    : -0.0011796608
        Cs(r)    : -0.00047866633
        Cl(f)    : 0.00099971372
        Cl(r)    : 0.0012349447
forces force_computation write:
    Sum of forces
        Total    : (6480.0195 0.94859395 0.70394607)
        Pressure : (6441.2989 0.94850871 0.70386947)
        Viscous  : (38.72066 8.5239555e-05 7.6601989e-05)
    Sum of moments
        Total    : (-7.6082348e-05 -0.55332461 0.18567781)
        Pressure : (-7.5819845e-05 -0.55323117 0.18559859)
        Viscous  : (-2.6250333e-07 -9.3438723e-05 7.9220685e-05)


Time = 2

smoothSolver:  Solving for Ux, Initial residual = 0.20861866, Final residual = 0.010128933, No Iterations 2
smoothSolver:  Solving for Uy, Initial residual = 0.54055334, Final residual = 0.025184023, No Iterations 2
smoothSolver:  Solving for Uz, Initial residual = 0.54059271, Final residual = 0.02523395, No Iterations 2
GAMG:  Solving for p, Initial residual = 0.353313, Final residual = 0.0017257718, No Iterations 5
GAMG:  Solving for p, Initial residual = 0.007054744, Final residual = 4.1456e-05, No Iterations 3
GAMG:  Solving for p, Initial residual = 0.00082622802, Final residual = 3.5306494e-06, No Iterations 4
GAMG:  Solving for p, Initial residual = 0.00015517472, Final residual = 1.0497309e-06, No Iterations 3
GAMG:  Solving for p, Initial residual = 3.4710629e-05, Final residual = 3.3206926e-07, No Iterations 3
GAMG:  Solving for p, Initial residual = 9.2276152e-06, Final residual = 9.7064458e-08, No Iterations 3
time step continuity errors : sum local = 1.2024242e-08, global = 3.0341676e-09, cumulative = 6.5901362e-09
smoothSolver:  Solving for omega, Initial residual = 0.21805383, Final residual = 0.0032067305, No Iterations 2
smoothSolver:  Solving for k, Initial residual = 0.27796855, Final residual = 0.0060087152, No Iterations 2
ExecutionTime = 1.42 s  ClockTime = 1 s

forceCoeffs forceCoeffs_cl execute:
    Coefficients
        Cd       : 3.2653306	(pressure: 3.2457942	viscous: 0.019536387)
        Cs       : -0.00034638653	(pressure: -0.00034626954	viscous: -1.169891e-07)
        Cl       : 0.00062738698	(pressure: 0.00062641661	viscous: 9.7037066e-07)
        CmRoll       : -5.6834514e-09	(pressure: -4.3018575e-09	viscous: -1.381594e-09)
        CmPitch       : -1.7233442e-05	(pressure: -1.7459253e-05	viscous: 2.2581088e-07)
        CmYaw       : -9.3308324e-05	(pressure: -9.3254358e-05	viscous: -5.3965847e-08)
        Cd(f)    : 1.6326653
        Cd(r)    : 1.6326653
        Cs(f)    : -0.00026650159
        Cs(r)    : -7.9884939e-05
        Cl(f)    : 0.00029646005
        Cl(r)    : 0.00033092693
forceCoeffs forceCoeffs_cd execute:
    Coefficients
        Cd       : 13.870878	(pressure: 13.787889	viscous: 0.0829891)
        Cs       : -0.0014714239	(pressure: -0.0014709269	viscous: -4.9696089e-07)
        Cl       : 0.0026650926	(pressure: 0.0026609705	viscous: 4.1220614e-06)
        CmRoll       : -2.4142873e-08	(pressure: -1.8273966e-08	viscous: -5.868907e-09)
        CmPitch       : -7.3206361e-05	(pressure: -7.4165589e-05	viscous: 9.5922758e-07)
        CmYaw       : -0.00039636673	(pressure: -0.00039613748	viscous: -2.2924285e-07)
        Cd(f)    : 6.935439
        Cd(r)    : 6.9354391
        Cs(f)    : -0.0011320787
        Cs(r)    : -0.0003393452
        Cl(f)    : 0.0012593399
        Cl(r)    : 0.0014057527
forces force_computation write:
    Sum of forces
        Total    : (5888.0725 1.1313097 0.6246072)
        Pressure : (5852.8443 1.1295599 0.62439624)
        Viscous  : (35.228184 0.0017497808 0.00021095577)
    Sum of moments
        Total    : (-3.8113985e-05 -0.6257381 0.11556976)
        Pressure : (-2.8848831e-05 -0.6253762 0.11708408)
        Viscous  : (-9.2651538e-06 -0.00036190219 -0.0015143179)


Time = 3

smoothSolver:  Solving for Ux, Initial residual = 0.050891207, Final residual = 0.002520051, No Iterations 2
smoothSolver:  Solving for Uy, Initial residual = 0.26259544, Final residual = 0.01250407, No Iterations 2
smoothSolver:  Solving for Uz, Initial residual = 0.26260414, Final residual = 0.012521923, No Iterations 2
GAMG:  Solving for p, Initial residual = 0.18700888, Final residual = 0.00083084409, No Iterations 6
GAMG:  Solving for p, Initial residual = 0.013475391, Final residual = 6.9328874e-05, No Iterations 3
GAMG:  Solving for p, Initial residual = 0.0017006885, Final residual = 8.3786199e-06, No Iterations 4
GAMG:  Solving for p, Initial residual = 0.00035969975, Final residual = 2.8074719e-06, No Iterations 3
GAMG:  Solving for p, Initial residual = 9.1418651e-05, Final residual = 8.8885383e-07, No Iterations 3
GAMG:  Solving for p, Initial residual = 2.6446486e-05, Final residual = 2.6368213e-07, No Iterations 3
time step continuity errors : sum local = 4.619893e-08, global = 4.8509626e-10, cumulative = 7.0752325e-09
smoothSolver:  Solving for omega, Initial residual = 0.099081775, Final residual = 0.0024993064, No Iterations 2
smoothSolver:  Solving for k, Initial residual = 0.12829442, Final residual = 0.0040801639, No Iterations 2
ExecutionTime = 2 s  ClockTime = 2 s

forceCoeffs forceCoeffs_cl execute:
    Coefficients
        Cd       : 0.8567414	(pressure: 0.83919074	viscous: 0.017550668)
        Cs       : -4.199399e-05	(pressure: -4.1531165e-05	viscous: -4.6282466e-07)
        Cl       : 0.00037572512	(pressure: 0.00037444702	viscous: 1.2780978e-06)
        CmRoll       : 1.2253424e-08	(pressure: 1.239767e-08	viscous: -1.4424595e-10)
        CmPitch       : 4.1130203e-05	(pressure: 4.0780256e-05	viscous: 3.4994691e-07)
        CmYaw       : -1.7114786e-05	(pressure: -1.7122092e-05	viscous: 7.3063121e-09)
        Cd(f)    : 0.42837071
        Cd(r)    : 0.42837069
        Cs(f)    : -3.8111781e-05
        Cs(r)    : -3.8822086e-06
        Cl(f)    : 0.00022899276
        Cl(r)    : 0.00014673236
forceCoeffs forceCoeffs_cd execute:
    Coefficients
        Cd       : 3.6393729	(pressure: 3.564819	viscous: 0.074553913)
        Cs       : -0.0001783873	(pressure: -0.00017642126	viscous: -1.9660443e-06)
        Cl       : 0.001596052	(pressure: 0.0015906227	viscous: 5.429263e-06)
        CmRoll       : 5.2051622e-08	(pressure: 5.2664368e-08	viscous: -6.1274591e-10)
        CmPitch       : 0.000174718	(pressure: 0.00017323145	viscous: 1.4865481e-06)
        CmYaw       : -7.2702321e-05	(pressure: -7.2733358e-05	viscous: 3.1036663e-08)
        Cd(f)    : 1.8196865
        Cd(r)    : 1.8196864
        Cs(f)    : -0.00016189597
        Cs(r)    : -1.6491329e-05
        Cl(f)    : 0.00097274399
        Cl(r)    : 0.00062330799
forces force_computation write:
    Sum of forces
        Total    : (1544.8836 0.6775108 0.075723927)
        Pressure : (1513.236 0.67520613 0.074889358)
        Viscous  : (31.647516 0.0023046771 0.00083456946)
    Sum of moments
        Total    : (8.2173101e-05 -0.11477404 -0.27582464)
        Pressure : (8.3140434e-05 -0.11482304 -0.27347785)
        Viscous  : (-9.673326e-07 4.8997106e-05 -0.0023467907)


Time = 4

smoothSolver:  Solving for Ux, Initial residual = 0.012199343, Final residual = 0.00066107106, No Iterations 2
smoothSolver:  Solving for Uy, Initial residual = 0.070414543, Final residual = 0.0032217448, No Iterations 2
smoothSolver:  Solving for Uz, Initial residual = 0.07042864, Final residual = 0.0032295674, No Iterations 2
GAMG:  Solving for p, Initial residual = 0.071854072, Final residual = 0.00039183365, No Iterations 6
GAMG:  Solving for p, Initial residual = 0.013791372, Final residual = 6.9828191e-05, No Iterations 3
GAMG:  Solving for p, Initial residual = 0.0017118911, Final residual = 8.6214476e-06, No Iterations 4
GAMG:  Solving for p, Initial residual = 0.00036441033, Final residual = 2.7230903e-06, No Iterations 3
GAMG:  Solving for p, Initial residual = 9.0812621e-05, Final residual = 8.7625793e-07, No Iterations 3
GAMG:  Solving for p, Initial residual = 2.6537504e-05, Final residual = 2.5566558e-07, No Iterations 3
time step continuity errors : sum local = 4.1269406e-08, global = -1.6723172e-09, cumulative = 5.4029153e-09
smoothSolver:  Solving for omega, Initial residual = 0.054175225, Final residual = 0.0019970263, No Iterations 2
smoothSolver:  Solving for k, Initial residual = 0.072935242, Final residual = 0.0030353094, No Iterations 2
ExecutionTime = 2.6 s  ClockTime = 3 s

forceCoeffs forceCoeffs_cl execute:
    Coefficients
        Cd       : -1.4383937	(pressure: -1.4554119	viscous: 0.017018237)
        Cs       : 7.9090956e-05	(pressure: 7.9856333e-05	viscous: -7.6537697e-07)
        Cl       : -0.00016273822	(pressure: -0.00016308515	viscous: 3.4692904e-07)
        CmRoll       : 2.1883757e-08	(pressure: 2.0834552e-08	viscous: 1.0492054e-09)
        CmPitch       : 1.768003e-05	(pressure: 1.771992e-05	viscous: -3.9889656e-08)
        CmYaw       : 7.8695154e-05	(pressure: 7.8662159e-05	viscous: 3.2995516e-08)
        Cd(f)    : -0.71919681
        Cd(r)    : -0.71919685
        Cs(f)    : 0.00011824063
        Cs(r)    : -3.9149676e-05
        Cl(f)    : -6.3689082e-05
        Cl(r)    : -9.9049142e-05
forceCoeffs forceCoeffs_cd execute:
    Coefficients
        Cd       : -6.1101878	(pressure: -6.18248	viscous: 0.072292187)
        Cs       : 0.00033597242	(pressure: 0.00033922368	viscous: -3.2512637e-06)
        Cl       : -0.00069129971	(pressure: -0.00069277344	viscous: 1.4737284e-06)
        CmRoll       : 9.2960551e-08	(pressure: 8.8503605e-08	viscous: 4.4569454e-09)
        CmPitch       : 7.5103434e-05	(pressure: 7.5272883e-05	viscous: -1.6944825e-07)
        CmYaw       : 0.00033429108	(pressure: 0.00033415092	viscous: 1.4016247e-07)
        Cd(f)    : -3.0550938
        Cd(r)    : -3.055094
        Cs(f)    : 0.00050227729
        Cs(r)    : -0.00016630487
        Cl(f)    : -0.00027054642
        Cl(r)    : -0.00042075329
forces force_computation write:
    Sum of forces
        Total    : (-2593.724 -0.29345098 -0.1426175)
        Pressure : (-2624.4114 -0.29407657 -0.14399763)
        Viscous  : (30.687433 0.00062558547 0.0013801344)
    Sum of moments
        Total    : (0.0001467554 0.52774023 -0.11856464)
        Pressure : (0.00013971929 0.52751896 -0.11883215)
        Viscous  : (7.0361116e-06 0.00022127234 0.00026750537)


Time = 5

smoothSolver:  Solving for Ux, Initial residual = 0.018225773, Final residual = 0.00079483005, No Iterations 2
smoothSolver:  Solving for Uy, Initial residual = 0.12923556, Final residual = 0.0059953733, No Iterations 2
smoothSolver:  Solving for Uz, Initial residual = 0.12924479, Final residual = 0.006003706, No Iterations 2
GAMG:  Solving for p, Initial residual = 0.036519146, Final residual = 0.00019105682, No Iterations 5
GAMG:  Solving for p, Initial residual = 0.015658604, Final residual = 8.289859e-05, No Iterations 3
GAMG:  Solving for p, Initial residual = 0.0020496041, Final residual = 1.9837497e-05, No Iterations 3
GAMG:  Solving for p, Initial residual = 0.00042262513, Final residual = 4.0065552e-06, No Iterations 3
GAMG:  Solving for p, Initial residual = 0.00010964045, Final residual = 1.0450384e-06, No Iterations 3
GAMG:  Solving for p, Initial residual = 3.0905815e-05, Final residual = 2.964901e-07, No Iterations 3
time step continuity errors : sum local = 1.5520417e-08, global = -2.7725714e-09, cumulative = 2.6303439e-09
smoothSolver:  Solving for omega, Initial residual = 0.033554059, Final residual = 0.0016047404, No Iterations 2
smoothSolver:  Solving for k, Initial residual = 0.047219113, Final residual = 0.0023774417, No Iterations 2
ExecutionTime = 3.16 s  ClockTime = 3 s

forceCoeffs forceCoeffs_cl execute:
    Coefficients
        Cd       : -2.0302633	(pressure: -2.0479577	viscous: 0.017694404)
        Cs       : 3.373417e-05	(pressure: 3.3639884e-05	viscous: 9.428635e-08)
        Cl       : -0.00043899456	(pressure: -0.00043956517	viscous: 5.706166e-07)
        CmRoll       : 1.0022132e-08	(pressure: 1.462429e-08	viscous: -4.6021587e-09)
        CmPitch       : -1.2325305e-06	(pressure: -1.4587566e-06	viscous: 2.2622604e-07)
        CmYaw       : 9.8066534e-05	(pressure: 9.8369924e-05	viscous: -3.033909e-07)
        Cd(f)    : -1.0151317
        Cd(r)    : -1.0151317
        Cs(f)    : 0.00011493362
        Cs(r)    : -8.1199448e-05
        Cl(f)    : -0.00022072981
        Cl(r)    : -0.00021826475
forceCoeffs forceCoeffs_cd execute:
    Coefficients
        Cd       : -8.6244055	(pressure: -8.69957	viscous: 0.075164495)
        Cs       : 0.00014330021	(pressure: 0.00014289969	viscous: 4.005213e-07)
        Cl       : -0.0018648158	(pressure: -0.0018672397	viscous: 2.4239363e-06)
        CmRoll       : 4.257326e-08	(pressure: 6.2122883e-08	viscous: -1.9549623e-08)
        CmPitch       : -5.2356968e-06	(pressure: -6.196688e-06	viscous: 9.6099117e-07)
        CmYaw       : 0.00041657924	(pressure: 0.00041786802	viscous: -1.2887817e-06)
        Cd(f)    : -4.3122027
        Cd(r)    : -4.3122028
        Cs(f)    : 0.00048822935
        Cs(r)    : -0.00034492914
        Cl(f)    : -0.00093764359
        Cl(r)    : -0.00092717219
forces force_computation write:
    Sum of forces
        Total    : (-3660.9885 -0.7915988 -0.060829749)
        Pressure : (-3692.8952 -0.79262774 -0.060659731)
        Viscous  : (31.906704 0.0010289408 -0.00017001797)
    Sum of moments
        Total    : (6.7209755e-05 0.65764729 0.0082655146)
        Pressure : (9.8072447e-05 0.65968187 0.0097826167)
        Viscous  : (-3.0862692e-05 -0.00203458 -0.0015171021)


Time = 6

smoothSolver:  Solving for Ux, Initial residual = 0.03251126, Final residual = 0.001357627, No Iterations 2
smoothSolver:  Solving for Uy, Initial residual = 0.22837869, Final residual = 0.010946518, No Iterations 2
smoothSolver:  Solving for Uz, Initial residual = 0.22839993, Final residual = 0.010969971, No Iterations 2
GAMG:  Solving for p, Initial residual = 0.059346355, Final residual = 0.0004966635, No Iterations 5
GAMG:  Solving for p, Initial residual = 0.014993914, Final residual = 0.00012127059, No Iterations 3
GAMG:  Solving for p, Initial residual = 0.0018503459, Final residual = 1.1252333e-05, No Iterations 4
GAMG:  Solving for p, Initial residual = 0.00037112313, Final residual = 3.3993379e-06, No Iterations 3
GAMG:  Solving for p, Initial residual = 8.8280355e-05, Final residual = 4.3361483e-07, No Iterations 4
GAMG:  Solving for p, Initial residual = 2.4384366e-05, Final residual = 2.0107934e-07, No Iterations 3
time step continuity errors : sum local = 1.5473155e-08, global = -3.6083662e-10, cumulative = 2.2695073e-09
smoothSolver:  Solving for omega, Initial residual = 0.022770705, Final residual = 0.001299244, No Iterations 2
smoothSolver:  Solving for k, Initial residual = 0.033307863, Final residual = 0.0019260943, No Iterations 2
ExecutionTime = 3.73 s  ClockTime = 4 s

forceCoeffs forceCoeffs_cl execute:
    Coefficients
        Cd       : -1.0126061	(pressure: -1.031273	viscous: 0.018666906)
        Cs       : -0.00015465519	(pressure: -0.00015481734	viscous: 1.6215508e-07)
        Cl       : -0.00044751435	(pressure: -0.00044632535	viscous: -1.1889944e-06)
        CmRoll       : 1.9304409e-08	(pressure: 1.9787973e-10	viscous: 1.9106529e-08)
        CmPitch       : -5.151196e-05	(pressure: -5.1059947e-05	viscous: -4.5201321e-07)
        CmYaw       : 6.8258252e-05	(pressure: 6.8518611e-05	viscous: -2.6035981e-07)
        Cd(f)    : -0.50630302
        Cd(r)    : -0.50630306
        Cs(f)    : -9.0693421e-06
        Cs(r)    : -0.00014558585
        Cl(f)    : -0.00027526913
        Cl(r)    : -0.00017224521
forceCoeffs forceCoeffs_cd execute:
    Coefficients
        Cd       : -4.3014743	(pressure: -4.3807699	viscous: 0.07929561)
        Cs       : -0.00065696358	(pressure: -0.0006576524	viscous: 6.8882258e-07)
        Cl       : -0.0019010072	(pressure: -0.0018959565	viscous: -5.0507584e-06)
        CmRoll       : 8.2003672e-08	(pressure: 8.4057818e-10	viscous: 8.1163094e-08)
        CmPitch       : -0.00021881892	(pressure: -0.00021689881	viscous: -1.920118e-06)
        CmYaw       : 0.00028995591	(pressure: 0.0002910619	viscous: -1.1059889e-06)
        Cd(f)    : -2.1507371
        Cd(r)    : -2.1507372
        Cs(f)    : -3.8525881e-05
        Cs(r)    : -0.0006184377
        Cl(f)    : -0.0011693225
        Cl(r)    : -0.00073168468
forces force_computation write:
    Sum of forces
        Total    : (-1825.9401 -0.80696177 0.27887558)
        Pressure : (-1859.6004 -0.80481776 0.27916798)
        Viscous  : (33.660328 -0.002144005 -0.00029239946)
    Sum of moments
        Total    : (0.00012945795 0.45774896 0.34544609)
        Pressure : (1.3270079e-06 0.45949497 0.34241483)
        Viscous  : (0.00012813094 -0.0017460077 0.003031261)


Time = 7

smoothSolver:  Solving for Ux, Initial residual = 0.028927061, Final residual = 0.0012079806, No Iterations 2
smoothSolver:  Solving for Uy, Initial residual = 0.14467722, Final residual = 0.007022733, No Iterations 2
smoothSolver:  Solving for Uz, Initial residual = 0.14468536, Final residual = 0.0070480057, No Iterations 2
GAMG:  Solving for p, Initial residual = 0.12231346, Final residual = 0.0012158822, No Iterations 5
GAMG:  Solving for p, Initial residual = 0.014087393, Final residual = 0.00010827368, No Iterations 3
GAMG:  Solving for p, Initial residual = 0.0016941837, Final residual = 1.0470114e-05, No Iterations 4
GAMG:  Solving for p, Initial residual = 0.00035549564, Final residual = 2.9170433e-06, No Iterations 3
GAMG:  Solving for p, Initial residual = 8.32934e-05, Final residual = 3.8381348e-07, No Iterations 4
GAMG:  Solving for p, Initial residual = 2.3431848e-05, Final residual = 1.6277516e-07, No Iterations 3
time step continuity errors : sum local = 1.6194874e-08, global = -2.2753859e-10, cumulative = 2.0419687e-09
smoothSolver:  Solving for omega, Initial residual = 0.016516659, Final residual = 0.0010619772, No Iterations 2
smoothSolver:  Solving for k, Initial residual = 0.024898513, Final residual = 0.0015965854, No Iterations 2
ExecutionTime = 4.34 s  ClockTime = 4 s

forceCoeffs forceCoeffs_cl execute:
    Coefficients
        Cd       : 0.39294837	(pressure: 0.37375848	viscous: 0.019189895)
        Cs       : -0.00024158991	(pressure: -0.00024077717	viscous: -8.1273812e-07)
        Cl       : -0.00031633562	(pressure: -0.00031670516	viscous: 3.6953321e-07)
        CmRoll       : 4.0684769e-08	(pressure: -1.1252966e-08	viscous: 5.1937735e-08)
        CmPitch       : -9.9975895e-05	(pressure: -0.00010000396	viscous: 2.8061507e-08)
        CmYaw       : 1.1562637e-05	(pressure: 1.1507311e-05	viscous: 5.5326265e-08)
        Cd(f)    : 0.19647423
        Cd(r)    : 0.19647415
        Cs(f)    : -0.00010923232
        Cs(r)    : -0.00013235759
        Cl(f)    : -0.00025814371
        Cl(r)    : -5.8191916e-05
forceCoeffs forceCoeffs_cd execute:
    Coefficients
        Cd       : 1.6692151	(pressure: 1.5876978	viscous: 0.081517225)
        Cs       : -0.0010262557	(pressure: -0.0010228033	viscous: -3.4524503e-06)
        Cl       : -0.0013437699	(pressure: -0.0013453396	viscous: 1.5697492e-06)
        CmRoll       : 1.7282583e-07	(pressure: -4.780175e-08	viscous: 2.2062758e-07)
        CmPitch       : -0.00042469007	(pressure: -0.00042480927	viscous: 1.1920316e-07)
        CmYaw       : 4.9117211e-05	(pressure: 4.8882189e-05	viscous: 2.350218e-07)
        Cd(f)    : 0.83460771
        Cd(r)    : 0.83460736
        Cs(f)    : -0.00046401065
        Cs(r)    : -0.00056224507
        Cl(f)    : -0.001096575
        Cl(r)    : -0.00024719487
forces force_computation write:
    Sum of forces
        Total    : (708.56793 -0.57041915 0.43563702)
        Pressure : (673.96455 -0.57108549 0.43417149)
        Viscous  : (34.603385 0.00066634551 0.0014655364)
    Sum of moments
        Total    : (0.0002728375 0.077540591 0.67045172)
        Pressure : (-7.5463892e-05 0.077169565 0.6706399)
        Viscous  : (0.00034830139 0.00037102533 -0.00018818421)


Time = 8

smoothSolver:  Solving for Ux, Initial residual = 0.02194363, Final residual = 0.00089808781, No Iterations 2
smoothSolver:  Solving for Uy, Initial residual = 0.13220431, Final residual = 0.0064649751, No Iterations 2
smoothSolver:  Solving for Uz, Initial residual = 0.13217247, Final residual = 0.0064619476, No Iterations 2
GAMG:  Solving for p, Initial residual = 0.43594614, Final residual = 0.0027318409, No Iterations 5
GAMG:  Solving for p, Initial residual = 0.034210501, Final residual = 0.00022013114, No Iterations 3
GAMG:  Solving for p, Initial residual = 0.004314888, Final residual = 2.2430815e-05, No Iterations 4
GAMG:  Solving for p, Initial residual = 0.00087980319, Final residual = 6.3050062e-06, No Iterations 3
GAMG:  Solving for p, Initial residual = 0.00020584265, Final residual = 1.9068155e-06, No Iterations 3
GAMG:  Solving for p, Initial residual = 5.708979e-05, Final residual = 5.2079131e-07, No Iterations 3
time step continuity errors : sum local = 1.1052637e-08, global = 1.365157e-09, cumulative = 3.4071257e-09
smoothSolver:  Solving for omega, Initial residual = 0.012558803, Final residual = 0.00087541632, No Iterations 2
smoothSolver:  Solving for k, Initial residual = 0.019396455, Final residual = 0.0013449347, No Iterations 2
ExecutionTime = 4.9 s  ClockTime = 5 s

forceCoeffs forceCoeffs_cl execute:
    Coefficients
        Cd       : 1.1187937	(pressure: 1.0997597	viscous: 0.019034019)
        Cs       : -0.00025605742	(pressure: -0.00025578564	viscous: -2.7177884e-07)
        Cl       : 0.00015646815	(pressure: 0.0001560808	viscous: 3.8734895e-07)
        CmRoll       : 4.1436353e-08	(pressure: -1.0890207e-08	viscous: 5.232656e-08)
        CmPitch       : -7.4780211e-06	(pressure: -7.3610032e-06	viscous: -1.1701791e-07)
        CmYaw       : -2.1105692e-06	(pressure: -1.9653852e-06	viscous: -1.4518392e-07)
        Cd(f)    : 0.55939691
        Cd(r)    : 0.55939683
        Cs(f)    : -0.00013013928
        Cs(r)    : -0.00012591814
        Cl(f)    : 7.0756053e-05
        Cl(r)    : 8.5712096e-05
forceCoeffs forceCoeffs_cd execute:
    Coefficients
        Cd       : 4.7525515	(pressure: 4.6716964	viscous: 0.080855077)
        Cs       : -0.0010877126	(pressure: -0.0010865581	viscous: -1.154496e-06)
        Cl       : 0.0006646649	(pressure: 0.00066301947	viscous: 1.6454292e-06)
        CmRoll       : 1.760185e-07	(pressure: -4.6260779e-08	viscous: 2.2227928e-07)
        CmPitch       : -3.176607e-05	(pressure: -3.1268987e-05	viscous: -4.9708325e-07)
        CmYaw       : -8.9655387e-06	(pressure: -8.3488083e-06	viscous: -6.1673036e-07)
        Cd(f)    : 2.3762759
        Cd(r)    : 2.3762756
        Cs(f)    : -0.00055282184
        Cs(r)    : -0.00053489076
        Cl(f)    : 0.00030056638
        Cl(r)    : 0.00036409852
forces force_computation write:
    Sum of forces
        Total    : (2017.4186 0.28214473 0.46172496)
        Pressure : (1983.0963 0.28144626 0.46123489)
        Viscous  : (34.322309 0.00069847101 0.00049007397)
    Sum of moments
        Total    : (0.00027787772 -0.014153759 0.05014861)
        Pressure : (-7.3031185e-05 -0.013180136 0.049363872)
        Viscous  : (0.00035090891 -0.0009736228 0.00078473774)


Time = 9

smoothSolver:  Solving for Ux, Initial residual = 0.02692549, Final residual = 0.0012149174, No Iterations 2
smoothSolver:  Solving for Uy, Initial residual = 0.14084134, Final residual = 0.0066833541, No Iterations 2
smoothSolver:  Solving for Uz, Initial residual = 0.14086459, Final residual = 0.0066884665, No Iterations 2
GAMG:  Solving for p, Initial residual = 0.30757398, Final residual = 0.0015945142, No Iterations 5
GAMG:  Solving for p, Initial residual = 0.0060975423, Final residual = 4.3509338e-05, No Iterations 3
GAMG:  Solving for p, Initial residual = 0.00070031424, Final residual = 3.5062116e-06, No Iterations 4
GAMG:  Solving for p, Initial residual = 0.00012503942, Final residual = 1.0045463e-06, No Iterations 3
GAMG:  Solving for p, Initial residual = 2.7804198e-05, Final residual = 2.6749866e-07, No Iterations 3
GAMG:  Solving for p, Initial residual = 6.9431964e-06, Final residual = 7.5116682e-08, No Iterations 3
time step continuity errors : sum local = 7.1700335e-09, global = 1.5237823e-10, cumulative = 3.5595039e-09
smoothSolver:  Solving for omega, Initial residual = 0.0098963919, Final residual = 0.00072783339, No Iterations 2
smoothSolver:  Solving for k, Initial residual = 0.015605186, Final residual = 0.0011469332, No Iterations 2
ExecutionTime = 5.46 s  ClockTime = 5 s

forceCoeffs forceCoeffs_cl execute:
    Coefficients
        Cd       : 0.88703357	(pressure: 0.86855673	viscous: 0.018476845)
        Cs       : 6.0351776e-05	(pressure: 6.0737602e-05	viscous: -3.8582564e-07)
        Cl       : 0.00048357177	(pressure: 0.00048174304	viscous: 1.8287304e-06)
        CmRoll       : 3.6818747e-08	(pressure: -3.4407264e-09	viscous: 4.0259474e-08)
        CmPitch       : 9.0231049e-05	(pressure: 8.9868481e-05	viscous: 3.6256811e-07)
        CmYaw       : -4.8246498e-05	(pressure: -4.8109076e-05	viscous: -1.3742283e-07)
        Cd(f)    : 0.44351682
        Cd(r)    : 0.44351675
        Cs(f)    : -1.807061e-05
        Cs(r)    : 7.8422387e-05
        Cl(f)    : 0.00033201694
        Cl(r)    : 0.00015155484
forceCoeffs forceCoeffs_cd execute:
    Coefficients
        Cd       : 3.7680517	(pressure: 3.6895635	viscous: 0.078488244)
        Cs       : 0.0002563698	(pressure: 0.00025800875	viscous: -1.6389582e-06)
        Cl       : 0.0020541764	(pressure: 0.0020464081	viscous: 7.7683087e-06)
        CmRoll       : 1.5640326e-07	(pressure: -1.4615946e-08	viscous: 1.7101921e-07)
        CmPitch       : 0.00038329469	(pressure: 0.00038175453	viscous: 1.540162e-06)
        CmYaw       : -0.00020494749	(pressure: -0.00020436373	viscous: -5.8376183e-07)
        Cd(f)    : 1.884026
        Cd(r)    : 1.8840257
        Cs(f)    : -7.6762591e-05
        Cs(r)    : 0.00033313239
        Cl(f)    : 0.0014103829
        Cl(r)    : 0.00064379353
forces force_computation write:
    Sum of forces
        Total    : (1599.5067 0.87198083 -0.10882685)
        Pressure : (1566.1891 0.86868325 -0.10952257)
        Viscous  : (33.317607 0.0032975825 0.00069572416)
    Sum of moments
        Total    : (0.00024691144 -0.32354747 -0.60510148)
        Pressure : (-2.3073971e-05 -0.32262589 -0.60267005)
        Viscous  : (0.00026998541 -0.00092157589 -0.0024314302)


Time = 10

smoothSolver:  Solving for Ux, Initial residual = 0.016949865, Final residual = 0.00079565133, No Iterations 2
smoothSolver:  Solving for Uy, Initial residual = 0.077545168, Final residual = 0.0037005321, No Iterations 2
smoothSolver:  Solving for Uz, Initial residual = 0.077573354, Final residual = 0.0037109577, No Iterations 2
GAMG:  Solving for p, Initial residual = 0.13558643, Final residual = 0.001120428, No Iterations 5
GAMG:  Solving for p, Initial residual = 0.0057856085, Final residual = 4.7434525e-05, No Iterations 3
GAMG:  Solving for p, Initial residual = 0.0007275624, Final residual = 4.3632699e-06, No Iterations 4
GAMG:  Solving for p, Initial residual = 0.00014556811, Final residual = 1.3141654e-06, No Iterations 3
GAMG:  Solving for p, Initial residual = 3.3558644e-05, Final residual = 1.5690634e-07, No Iterations 4
GAMG:  Solving for p, Initial residual = 8.9922367e-06, Final residual = 6.9572161e-08, No Iterations 3
time step continuity errors : sum local = 9.9095975e-09, global = 1.4256486e-09, cumulative = 4.9851525e-09
smoothSolver:  Solving for omega, Initial residual = 0.0080249354, Final residual = 0.0006115643, No Iterations 2
smoothSolver:  Solving for k, Initial residual = 0.012886483, Final residual = 0.00098928609, No Iterations 2
ExecutionTime = 6.05 s  ClockTime = 6 s

forceCoeffs forceCoeffs_cl execute:
    Coefficients
        Cd       : 0.17458888	(pressure: 0.15678994	viscous: 0.017798941)
        Cs       : 0.00023696329	(pressure: 0.00023748183	viscous: -5.1854959e-07)
        Cl       : 0.00051757873	(pressure: 0.00051522256	viscous: 2.3561748e-06)
        CmRoll       : 8.2982742e-08	(pressure: 6.024307e-09	viscous: 7.6958435e-08)
        CmPitch       : 0.00013664182	(pressure: 0.00013574242	viscous: 8.9939839e-07)
        CmYaw       : -4.0858622e-05	(pressure: -4.0936671e-05	viscous: 7.8048917e-08)
        Cd(f)    : 0.087294523
        Cd(r)    : 0.087294357
        Cs(f)    : 7.762302e-05
        Cs(r)    : 0.00015934026
        Cl(f)    : 0.00039543118
        Cl(r)    : 0.00012214755
forceCoeffs forceCoeffs_cd execute:
    Coefficients
        Cd       : 0.7416404	(pressure: 0.66603184	viscous: 0.075608558)
        Cs       : 0.0010066022	(pressure: 0.0010088049	viscous: -2.2027596e-06)
        Cl       : 0.0021986354	(pressure: 0.0021886266	viscous: 1.0008853e-05)
        CmRoll       : 3.5250443e-07	(pressure: 2.5590802e-08	viscous: 3.2691363e-07)
        CmPitch       : 0.00058044414	(pressure: 0.00057662356	viscous: 3.8205766e-06)
        CmYaw       : -0.00017356435	(pressure: -0.00017389589	viscous: 3.3154592e-07)
        Cd(f)    : 0.37082055
        Cd(r)    : 0.37081985
        Cs(f)    : 0.00032973674
        Cs(r)    : 0.00067686543
        Cl(f)    : 0.0016797619
        Cl(r)    : 0.00051887359
forces force_computation write:
    Sum of forces
        Total    : (314.82019 0.93330248 -0.42729426)
        Pressure : (282.72498 0.9290538 -0.42822931)
        Viscous  : (32.095205 0.004248675 0.00093505313)
    Sum of moments
        Total    : (0.00055649337 -0.27400339 -0.91633829)
        Pressure : (4.0399808e-05 -0.27452679 -0.91030681)
        Viscous  : (0.00051609356 0.00052340647 -0.0060314859)


Time = 11

smoothSolver:  Solving for Ux, Initial residual = 0.0092233514, Final residual = 0.00041300281, No Iterations 2
smoothSolver:  Solving for Uy, Initial residual = 0.047816602, Final residual = 0.0020054016, No Iterations 2
smoothSolver:  Solving for Uz, Initial residual = 0.047819406, Final residual = 0.0020047531, No Iterations 2
GAMG:  Solving for p, Initial residual = 0.046864497, Final residual = 0.00034292352, No Iterations 5
GAMG:  Solving for p, Initial residual = 0.0055546793, Final residual = 4.0601044e-05, No Iterations 3
GAMG:  Solving for p, Initial residual = 0.00071591452, Final residual = 3.8314268e-06, No Iterations 4
GAMG:  Solving for p, Initial residual = 0.00014836843, Final residual = 1.1600924e-06, No Iterations 3
GAMG:  Solving for p, Initial residual = 3.5077676e-05, Final residual = 3.3348311e-07, No Iterations 3
GAMG:  Solving for p, Initial residual = 9.4793665e-06, Final residual = 9.5969209e-08, No Iterations 3
time step continuity errors : sum local = 1.0531217e-08, global = 1.0360876e-09, cumulative = 6.0212401e-09
smoothSolver:  Solving for omega, Initial residual = 0.0066626835, Final residual = 0.00052009455, No Iterations 2
smoothSolver:  Solving for k, Initial residual = 0.010841236, Final residual = 0.0008595168, No Iterations 2
ExecutionTime = 6.6 s  ClockTime = 7 s

forceCoeffs forceCoeffs_cl execute:
    Coefficients
        Cd       : -0.38218563	(pressure: -0.39946998	viscous: 0.017284349)
        Cs       : 0.0002850195	(pressure: 0.00028615223	viscous: -1.1327287e-06)
        Cl       : 0.00010740384	(pressure: 0.00010904009	viscous: -1.636244e-06)
        CmRoll       : 8.2520801e-08	(pressure: 1.4438322e-08	viscous: 6.8082479e-08)
        CmPitch       : 5.2104238e-05	(pressure: 5.2838327e-05	viscous: -7.3408943e-07)
        CmYaw       : -3.7144311e-05	(pressure: -3.7646332e-05	viscous: 5.0202104e-07)
        Cd(f)    : -0.19109273
        Cd(r)    : -0.1910929
        Cs(f)    : 0.00010536544
        Cs(r)    : 0.00017965406
        Cl(f)    : 0.00010580616
        Cl(r)    : 1.5976832e-06
forceCoeffs forceCoeffs_cd execute:
    Coefficients
        Cd       : -1.6234958	(pressure: -1.6969184	viscous: 0.07342261)
        Cs       : 0.0012107414	(pressure: 0.0012155531	viscous: -4.8117463e-06)
        Cl       : 0.00045624343	(pressure: 0.00046319407	viscous: -6.9506412e-06)
        CmRoll       : 3.5054214e-07	(pressure: 6.1332905e-08	viscous: 2.8920924e-07)
        CmPitch       : 0.00022133488	(pressure: 0.00022445323	viscous: -3.1183566e-06)
        CmYaw       : -0.00015778623	(pressure: -0.00015991878	viscous: 2.1325475e-06)
        Cd(f)    : -0.81174753
        Cd(r)    : -0.81174823
        Cs(f)    : 0.00044758445
        Cs(r)    : 0.00076315692
        Cl(f)    : 0.00044945659
        Cl(r)    : 6.7868379e-06
forces force_computation write:
    Sum of forces
        Total    : (-689.16046 0.19367154 -0.51394965)
        Pressure : (-720.32775 0.19662203 -0.5159922)
        Viscous  : (31.167288 -0.0029504894 0.0020425463)
    Sum of moments
        Total    : (0.00055339553 -0.24909472 -0.34941799)
        Pressure : (9.682532e-05 -0.25246134 -0.35434089)
        Viscous  : (0.00045657021 0.0033666202 0.0049229019)


Time = 12

smoothSolver:  Solving for Ux, Initial residual = 0.010501594, Final residual = 0.00044551942, No Iterations 2
smoothSolver:  Solving for Uy, Initial residual = 0.078943597, Final residual = 0.0037021444, No Iterations 2
smoothSolver:  Solving for Uz, Initial residual = 0.078954578, Final residual = 0.0036998219, No Iterations 2
GAMG:  Solving for p, Initial residual = 0.036354254, Final residual = 0.00029745658, No Iterations 4
GAMG:  Solving for p, Initial residual = 0.0095671169, Final residual = 8.1709155e-05, No Iterations 3
GAMG:  Solving for p, Initial residual = 0.0012967912, Final residual = 5.6729806e-06, No Iterations 4
GAMG:  Solving for p, Initial residual = 0.00023470666, Final residual = 1.5976501e-06, No Iterations 3
GAMG:  Solving for p, Initial residual = 5.0303925e-05, Final residual = 3.9898492e-07, No Iterations 3
GAMG:  Solving for p, Initial residual = 1.2150616e-05, Final residual = 1.055609e-07, No Iterations 3
time step continuity errors : sum local = 3.975054e-09, global = -7.7119521e-10, cumulative = 5.2500449e-09
smoothSolver:  Solving for omega, Initial residual = 0.0056357507, Final residual = 0.00044754319, No Iterations 2
smoothSolver:  Solving for k, Initial residual = 0.009284788, Final residual = 0.00075381616, No Iterations 2
ExecutionTime = 7.15 s  ClockTime = 7 s

forceCoeffs forceCoeffs_cl execute:
    Coefficients
        Cd       : -0.46750403	(pressure: -0.48455061	viscous: 0.017046583)
        Cs       : 7.1567206e-05	(pressure: 7.2159373e-05	viscous: -5.9216642e-07)
        Cl       : -0.00025041789	(pressure: -0.00024509188	viscous: -5.3260141e-06)
        CmRoll       : 6.2167106e-08	(pressure: 1.9624104e-08	viscous: 4.2543001e-08)
        CmPitch       : -5.5408837e-05	(pressure: -5.2924837e-05	viscous: -2.4840007e-06)
        CmYaw       : -4.8543185e-08	(pressure: -2.2992582e-07	viscous: 1.8138264e-07)
        Cd(f)    : -0.23375195
        Cd(r)    : -0.23375208
        Cs(f)    : 3.573506e-05
        Cs(r)    : 3.5832146e-05
        Cl(f)    : -0.00018061778
        Cl(r)    : -6.980011e-05
forceCoeffs forceCoeffs_cd execute:
    Coefficients
        Cd       : -1.9859219	(pressure: -2.0583345	viscous: 0.0724126)
        Cs       : 0.0003040121	(pressure: 0.00030652757	viscous: -2.5154783e-06)
        Cl       : -0.0010637563	(pressure: -0.0010411318	viscous: -2.2624506e-05)
        CmRoll       : 2.6408118e-07	(pressure: 8.3361716e-08	viscous: 1.8071946e-07)
        CmPitch       : -0.00023537256	(pressure: -0.00022482072	viscous: -1.0551848e-05)
        CmYaw       : -2.0620779e-07	(pressure: -9.7670757e-07	viscous: 7.7049978e-07)
        Cd(f)    : -0.99296067
        Cd(r)    : -0.9929612
        Cs(f)    : 0.00015179984
        Cs(r)    : 0.00015221226
        Cl(f)    : -0.00076725073
        Cl(r)    : -0.0002965056
forces force_computation write:
    Sum of forces
        Total    : (-843.00733 -0.45155573 -0.12905061)
        Pressure : (-873.74588 -0.44195181 -0.13011841)
        Viscous  : (30.738547 -0.009603915 0.0010677996)
    Sum of moments
        Total    : (0.00041690092 -0.00032553709 0.37157907)
        Pressure : (0.00013160187 -0.0015419133 0.35492103)
        Viscous  : (0.00028529906 0.0012163762 0.016658041)


Time = 13

smoothSolver:  Solving for Ux, Initial residual = 0.011282075, Final residual = 0.00045406004, No Iterations 2
smoothSolver:  Solving for Uy, Initial residual = 0.071748638, Final residual = 0.0034493566, No Iterations 2
smoothSolver:  Solving for Uz, Initial residual = 0.071779525, Final residual = 0.0034553824, No Iterations 2
GAMG:  Solving for p, Initial residual = 0.043145217, Final residual = 0.00026772029, No Iterations 5
GAMG:  Solving for p, Initial residual = 0.020689233, Final residual = 0.00016001081, No Iterations 3
GAMG:  Solving for p, Initial residual = 0.0024272198, Final residual = 1.3390112e-05, No Iterations 4
GAMG:  Solving for p, Initial residual = 0.00046263262, Final residual = 4.1007034e-06, No Iterations 3
GAMG:  Solving for p, Initial residual = 0.00010798943, Final residual = 5.0231328e-07, No Iterations 4
GAMG:  Solving for p, Initial residual = 2.9253637e-05, Final residual = 2.4616463e-07, No Iterations 3
time step continuity errors : sum local = 5.7982945e-09, global = -1.8322444e-10, cumulative = 5.0668204e-09
smoothSolver:  Solving for omega, Initial residual = 0.0048404944, Final residual = 0.0003896715, No Iterations 2
smoothSolver:  Solving for k, Initial residual = 0.0080732517, Final residual = 0.00066641229, No Iterations 2
ExecutionTime = 7.74 s  ClockTime = 8 s

forceCoeffs forceCoeffs_cl execute:
    Coefficients
        Cd       : -0.1725674	(pressure: -0.18954834	viscous: 0.016980948)
        Cs       : -0.00018744178	(pressure: -0.00018879887	viscous: 1.3570897e-06)
        Cl       : -0.00044619925	(pressure: -0.00044712972	viscous: 9.3046525e-07)
        CmRoll       : 6.2547113e-08	(pressure: 1.9220105e-08	viscous: 4.3327008e-08)
        CmPitch       : -0.00011941223	(pressure: -0.00011971955	viscous: 3.0732845e-07)
        CmYaw       : 3.6639566e-05	(pressure: 3.7443104e-05	viscous: -8.0353777e-07)
        Cd(f)    : -0.086283636
        Cd(r)    : -0.086283761
        Cs(f)    : -5.7081325e-05
        Cs(r)    : -0.00013036046
        Cl(f)    : -0.00034251185
        Cl(r)    : -0.0001036874
forceCoeffs forceCoeffs_cd execute:
    Coefficients
        Cd       : -0.73305329	(pressure: -0.80518708	viscous: 0.072133787)
        Cs       : -0.00079623856	(pressure: -0.00080200338	viscous: 5.7648149e-06)
        Cl       : -0.0018954208	(pressure: -0.0018993733	viscous: 3.9525462e-06)
        CmRoll       : 2.6569542e-07	(pressure: 8.1645559e-08	viscous: 1.8404986e-07)
        CmPitch       : -0.00050725413	(pressure: -0.00050855964	viscous: 1.3055081e-06)
        CmYaw       : 0.00015564212	(pressure: 0.00015905548	viscous: -3.4133679e-06)
        Cd(f)    : -0.36652638
        Cd(r)    : -0.36652691
        Cs(f)    : -0.00024247717
        Cs(r)    : -0.0005537614
        Cl(f)    : -0.0014549645
        Cl(r)    : -0.00044045626
forces force_computation write:
    Sum of forces
        Total    : (-311.17503 -0.80459038 0.33799666)
        Pressure : (-341.79523 -0.8062682 0.34044377)
        Viscous  : (30.620193 0.001677823 -0.002447116)
    Sum of moments
        Total    : (0.0004194493 0.24570983 0.80079435)
        Pressure : (0.0001288926 0.25109846 0.80285534)
        Viscous  : (0.00029055671 -0.0053886317 -0.0020609857)


Time = 14

smoothSolver:  Solving for Ux, Initial residual = 0.0085813965, Final residual = 0.00033086913, No Iterations 2
smoothSolver:  Solving for Uy, Initial residual = 0.046189064, Final residual = 0.0021387887, No Iterations 2
smoothSolver:  Solving for Uz, Initial residual = 0.046202359, Final residual = 0.0021440913, No Iterations 2
GAMG:  Solving for p, Initial residual = 0.057707231, Final residual = 0.00039154823, No Iterations 5
GAMG:  Solving for p, Initial residual = 0.020446107, Final residual = 0.00016496735, No Iterations 3
GAMG:  Solving for p, Initial residual = 0.0025172239, Final residual = 1.4845913e-05, No Iterations 4
GAMG:  Solving for p, Initial residual = 0.00050261197, Final residual = 4.4187088e-06, No Iterations 3
GAMG:  Solving for p, Initial residual = 0.00011581796, Final residual = 5.3810768e-07, No Iterations 4
GAMG:  Solving for p, Initial residual = 3.0965201e-05, Final residual = 2.6076629e-07, No Iterations 3
time step continuity errors : sum local = 5.1604129e-09, global = 5.6972865e-11, cumulative = 5.1237933e-09
smoothSolver:  Solving for omega, Initial residual = 0.004207489, Final residual = 0.0003429175, No Iterations 2
smoothSolver:  Solving for k, Initial residual = 0.0070975653, Final residual = 0.00059277556, No Iterations 2
ExecutionTime = 8.35 s  ClockTime = 8 s

forceCoeffs forceCoeffs_cl execute:
    Coefficients
        Cd       : 0.17340167	(pressure: 0.15648008	viscous: 0.016921592)
        Cs       : -0.00023092306	(pressure: -0.00023210113	viscous: 1.178062e-06)
        Cl       : -0.00032822286	(pressure: -0.00033044315	viscous: 2.2202926e-06)
        CmRoll       : 6.3524925e-08	(pressure: 1.6700622e-08	viscous: 4.6824304e-08)
        CmPitch       : -0.00010050878	(pressure: -0.00010132345	viscous: 8.1467058e-07)
        CmYaw       : 3.5787611e-05	(pressure: 3.6557895e-05	viscous: -7.7028383e-07)
        Cd(f)    : 0.086700899
        Cd(r)    : 0.086700772
        Cs(f)    : -7.9673921e-05
        Cs(r)    : -0.00015124914
        Cl(f)    : -0.00026462021
        Cl(r)    : -6.360265e-05
forceCoeffs forceCoeffs_cd execute:
    Coefficients
        Cd       : 0.73659723	(pressure: 0.66471558	viscous: 0.071881648)
        Cs       : -0.00098094377	(pressure: -0.00098594808	viscous: 5.0043186e-06)
        Cl       : -0.001394266	(pressure: -0.0014036976	viscous: 9.4316358e-06)
        CmRoll       : 2.6984909e-07	(pressure: 7.0942981e-08	viscous: 1.9890611e-07)
        CmPitch       : -0.00042695372	(pressure: -0.00043041438	viscous: 3.4606592e-06)
        CmYaw       : 0.00015202307	(pressure: 0.00015529518	viscous: -3.2721076e-06)
        Cd(f)    : 0.36829888
        Cd(r)    : 0.36829834
        Cs(f)    : -0.00033844881
        Cs(r)    : -0.00064249496
        Cl(f)    : -0.0011240867
        Cl(r)    : -0.00027017926
forces force_computation write:
    Sum of forces
        Total    : (312.6794 -0.59185432 0.41640248)
        Pressure : (282.16624 -0.59585797 0.41852677)
        Viscous  : (30.513162 0.004003651 -0.0021242917)
    Sum of moments
        Total    : (0.00042600664 0.23999651 0.67402531)
        Pressure : (0.0001119966 0.24516213 0.6794886)
        Viscous  : (0.00031401004 -0.0051656263 -0.0054632898)


Time = 15

smoothSolver:  Solving for Ux, Initial residual = 0.0080890362, Final residual = 0.00031788147, No Iterations 2
smoothSolver:  Solving for Uy, Initial residual = 0.051407174, Final residual = 0.0022589711, No Iterations 2
smoothSolver:  Solving for Uz, Initial residual = 0.051397163, Final residual = 0.0022551677, No Iterations 2
GAMG:  Solving for p, Initial residual = 0.080441996, Final residual = 0.00064432495, No Iterations 4
GAMG:  Solving for p, Initial residual = 0.0081280929, Final residual = 8.1199137e-05, No Iterations 3
GAMG:  Solving for p, Initial residual = 0.00098262068, Final residual = 5.3621287e-06, No Iterations 4
GAMG:  Solving for p, Initial residual = 0.00018553342, Final residual = 1.481362e-06, No Iterations 3
GAMG:  Solving for p, Initial residual = 3.9910359e-05, Final residual = 3.6616432e-07, No Iterations 3
GAMG:  Solving for p, Initial residual = 1.0141366e-05, Final residual = 1.0009565e-07, No Iterations 3
time step continuity errors : sum local = 3.0475529e-09, global = 1.2970841e-10, cumulative = 5.2535017e-09
smoothSolver:  Solving for omega, Initial residual = 0.0036876941, Final residual = 0.00030441928, No Iterations 2
smoothSolver:  Solving for k, Initial residual = 0.0062928642, Final residual = 0.00052955674, No Iterations 2
ExecutionTime = 8.88 s  ClockTime = 9 s

forceCoeffs forceCoeffs_cl execute:
    Coefficients
        Cd       : 0.31939833	(pressure: 0.30262113	viscous: 0.016777207)
        Cs       : -5.6677622e-05	(pressure: -5.8360928e-05	viscous: 1.6833061e-06)
        Cl       : -0.00011794277	(pressure: -0.00012177812	viscous: 3.835354e-06)
        CmRoll       : 6.8325194e-08	(pressure: 1.4772617e-08	viscous: 5.3552577e-08)
        CmPitch       : -4.5887118e-05	(pressure: -4.7324436e-05	viscous: 1.4373181e-06)
        CmYaw       : 8.9700798e-07	(pressure: 1.9165555e-06	viscous: -1.0195475e-06)
        Cd(f)    : 0.15969924
        Cd(r)    : 0.1596991
        Cs(f)    : -2.7441803e-05
        Cs(r)    : -2.9235819e-05
        Cl(f)    : -0.0001048585
        Cl(r)    : -1.3084266e-05
forceCoeffs forceCoeffs_cd execute:
    Coefficients
        Cd       : 1.35678	(pressure: 1.2855117	viscous: 0.071268311)
        Cs       : -0.00024076227	(pressure: -0.00024791282	viscous: 7.1505575e-06)
        Cl       : -0.00050101199	(pressure: -0.00051730428	viscous: 1.6292295e-05)
        CmRoll       : 2.9024027e-07	(pressure: 6.2752962e-08	viscous: 2.2748731e-07)
        CmPitch       : -0.00019492502	(pressure: -0.00020103064	viscous: 6.1056188e-06)
        CmYaw       : 3.8104223e-06	(pressure: 8.1413831e-06	viscous: -4.3309608e-06)
        Cd(f)    : 0.67839031
        Cd(r)    : 0.67838973
        Cs(f)    : -0.00011657071
        Cs(r)    : -0.00012419155
        Cl(f)    : -0.00044543101
        Cl(r)    : -5.5580977e-05
forces force_computation write:
    Sum of forces
        Total    : (575.94186 -0.21267543 0.10220158)
        Pressure : (545.68905 -0.21959137 0.10523693)
        Viscous  : (30.252806 0.0069159437 -0.0030353522)
    Sum of moments
        Total    : (0.00045819788 0.0060154555 0.30772515)
        Pressure : (9.9067143e-05 0.012852677 0.31736399)
        Viscous  : (0.00035913074 -0.0068372217 -0.0096388471)


Time = 16

smoothSolver:  Solving for Ux, Initial residual = 0.0081724535, Final residual = 0.00034416791, No Iterations 2
smoothSolver:  Solving for Uy, Initial residual = 0.046318235, Final residual = 0.0020725344, No Iterations 2
smoothSolver:  Solving for Uz, Initial residual = 0.04632293, Final residual = 0.0020747577, No Iterations 2
GAMG:  Solving for p, Initial residual = 0.076136557, Final residual = 0.00069744939, No Iterations 4
GAMG:  Solving for p, Initial residual = 0.0037104263, Final residual = 2.0102412e-05, No Iterations 4
GAMG:  Solving for p, Initial residual = 0.00044167799, Final residual = 4.1029228e-06, No Iterations 3
GAMG:  Solving for p, Initial residual = 7.1897756e-05, Final residual = 3.7187101e-07, No Iterations 4
GAMG:  Solving for p, Initial residual = 1.577122e-05, Final residual = 1.0975058e-07, No Iterations 3
GAMG:  Solving for p, Initial residual = 3.5888865e-06, Final residual = 6.307793e-08, No Iterations 2
time step continuity errors : sum local = 4.4121416e-09, global = 2.9378108e-11, cumulative = 5.2828798e-09
smoothSolver:  Solving for omega, Initial residual = 0.003254526, Final residual = 0.00027217395, No Iterations 2
smoothSolver:  Solving for k, Initial residual = 0.0056222911, Final residual = 0.00047484982, No Iterations 2
ExecutionTime = 9.42 s  ClockTime = 9 s

forceCoeffs forceCoeffs_cl execute:
    Coefficients
        Cd       : 0.23638572	(pressure: 0.21984779	viscous: 0.01653793)
        Cs       : 0.00014577161	(pressure: 0.0001437186	viscous: 2.0530137e-06)
        Cl       : 3.1145344e-05	(pressure: 2.6610399e-05	viscous: 4.5349453e-06)
        CmRoll       : 5.1947874e-08	(pressure: 1.3191071e-08	viscous: 3.8756803e-08)
        CmPitch       : 5.0933346e-06	(pressure: 3.3390924e-06	viscous: 1.7542421e-06)
        CmYaw       : -2.9370835e-05	(pressure: -2.8198522e-05	viscous: -1.1723128e-06)
        Cd(f)    : 0.11819291
        Cd(r)    : 0.11819281
        Cs(f)    : 4.351497e-05
        Cs(r)    : 0.00010225664
        Cl(f)    : 2.0666007e-05
        Cl(r)    : 1.0479337e-05
forceCoeffs forceCoeffs_cd execute:
    Coefficients
        Cd       : 1.0041487	(pressure: 0.93389683	viscous: 0.070251881)
        Cs       : 0.00061922681	(pressure: 0.00061050577	viscous: 8.7210474e-06)
        Cl       : 0.00013230307	(pressure: 0.00011303897	viscous: 1.9264106e-05)
        CmRoll       : 2.2067065e-07	(pressure: 5.6034675e-08	viscous: 1.6463598e-07)
        CmPitch       : 2.1636101e-05	(pressure: 1.4184213e-05	viscous: 7.4518884e-06)
        CmYaw       : -0.00012476509	(pressure: -0.0001197852	viscous: -4.9798963e-06)
        Cd(f)    : 0.50207457
        Cd(r)    : 0.50207413
        Cs(f)    : 0.00018484831
        Cs(r)    : 0.0004343785
        Cl(f)    : 8.7787638e-05
        Cl(r)    : 4.4515436e-05
forces force_computation write:
    Sum of forces
        Total    : (426.25278 0.056161556 -0.26285664)
        Pressure : (396.43144 0.047984103 -0.25915463)
        Viscous  : (29.82134 0.0081774528 -0.0037020121)
    Sum of moments
        Total    : (0.00034836939 -0.19696475 -0.034156583)
        Pressure : (8.8461086e-05 -0.18910306 -0.0223924)
        Viscous  : (0.0002599083 -0.0078616862 -0.011764182)


Time = 17

smoothSolver:  Solving for Ux, Initial residual = 0.0064286953, Final residual = 0.00027111355, No Iterations 2
smoothSolver:  Solving for Uy, Initial residual = 0.029588565, Final residual = 0.0012402545, No Iterations 2
smoothSolver:  Solving for Uz, Initial residual = 0.029600529, Final residual = 0.0012455964, No Iterations 2
GAMG:  Solving for p, Initial residual = 0.045640213, Final residual = 0.00025251243, No Iterations 5
GAMG:  Solving for p, Initial residual = 0.0031541588, Final residual = 2.5058278e-05, No Iterations 3
GAMG:  Solving for p, Initial residual = 0.0003798619, Final residual = 2.1769435e-06, No Iterations 4
GAMG:  Solving for p, Initial residual = 7.4312146e-05, Final residual = 5.67033e-07, No Iterations 3
GAMG:  Solving for p, Initial residual = 1.6713506e-05, Final residual = 1.5662106e-07, No Iterations 3
GAMG:  Solving for p, Initial residual = 4.3953372e-06, Final residual = 8.6139721e-08, No Iterations 2
time step continuity errors : sum local = 6.8584496e-09, global = -2.4265823e-10, cumulative = 5.0402216e-09
smoothSolver:  Solving for omega, Initial residual = 0.0028910253, Final residual = 0.00024513296, No Iterations 2
smoothSolver:  Solving for k, Initial residual = 0.0050589088, Final residual = 0.00042782475, No Iterations 2
ExecutionTime = 9.95 s  ClockTime = 10 s

forceCoeffs forceCoeffs_cl execute:
    Coefficients
        Cd       : 0.058976853	(pressure: 0.042723718	viscous: 0.016253135)
        Cs       : 0.00022121662	(pressure: 0.00021925048	viscous: 1.9661367e-06)
        Cl       : 6.6746289e-06	(pressure: 2.7147146e-06	viscous: 3.9599142e-06)
        CmRoll       : 3.6329752e-08	(pressure: 1.207201e-08	viscous: 2.4257742e-08)
        CmPitch       : 9.2137336e-06	(pressure: 7.7128685e-06	viscous: 1.5008652e-06)
        CmYaw       : -3.5429182e-05	(pressure: -3.4277704e-05	viscous: -1.1514786e-06)
        Cd(f)    : 0.029488463
        Cd(r)    : 0.02948839
        Cs(f)    : 7.5179126e-05
        Cs(r)    : 0.00014603749
        Cl(f)    : 1.2551048e-05
        Cl(r)    : -5.8764192e-06
forceCoeffs forceCoeffs_cd execute:
    Coefficients
        Cd       : 0.25052923	(pressure: 0.18148713	viscous: 0.069042093)
        Cs       : 0.00093971151	(pressure: 0.00093135951	viscous: 8.3520005e-06)
        Cl       : 2.835332e-05	(pressure: 1.1531903e-05	viscous: 1.6821417e-05)
        CmRoll       : 1.5432605e-07	(pressure: 5.1280987e-08	viscous: 1.0304506e-07)
        CmPitch       : 3.9139246e-05	(pressure: 3.2763684e-05	viscous: 6.3755621e-06)
        CmYaw       : -0.00015050049	(pressure: -0.0001456091	viscous: -4.8913944e-06)
        Cd(f)    : 0.12526477
        Cd(r)    : 0.12526446
        Cs(f)    : 0.00031935526
        Cs(r)    : 0.00062035625
        Cl(f)    : 5.3315906e-05
        Cl(r)    : -2.4962586e-05
forces force_computation write:
    Sum of forces
        Total    : (106.34757 0.012035749 -0.39889973)
        Pressure : (77.03978 0.0048951971 -0.39535437)
        Viscous  : (29.307795 0.0071405518 -0.0035453548)
    Sum of moments
        Total    : (0.00024363217 -0.23759283 -0.06178853)
        Pressure : (8.0956512e-05 -0.22987086 -0.051723527)
        Viscous  : (0.00016267566 -0.0077219696 -0.010065002)


Time = 18

smoothSolver:  Solving for Ux, Initial residual = 0.0051905066, Final residual = 0.00019937598, No Iterations 2
smoothSolver:  Solving for Uy, Initial residual = 0.027287317, Final residual = 0.0010179594, No Iterations 2
smoothSolver:  Solving for Uz, Initial residual = 0.02728471, Final residual = 0.0010169815, No Iterations 2
GAMG:  Solving for p, Initial residual = 0.027024413, Final residual = 0.00024954591, No Iterations 4
GAMG:  Solving for p, Initial residual = 0.0029330775, Final residual = 1.3118338e-05, No Iterations 4
GAMG:  Solving for p, Initial residual = 0.00037584565, Final residual = 3.137382e-06, No Iterations 3
GAMG:  Solving for p, Initial residual = 6.9286617e-05, Final residual = 6.3178692e-07, No Iterations 3
GAMG:  Solving for p, Initial residual = 1.5990144e-05, Final residual = 1.4548306e-07, No Iterations 3
GAMG:  Solving for p, Initial residual = 4.0668471e-06, Final residual = 7.8849755e-08, No Iterations 2
time step continuity errors : sum local = 4.7346154e-09, global = -5.4685207e-10, cumulative = 4.4933695e-09
smoothSolver:  Solving for omega, Initial residual = 0.0025855222, Final residual = 0.00022257954, No Iterations 2
smoothSolver:  Solving for k, Initial residual = 0.004579548, Final residual = 0.00038749468, No Iterations 2
ExecutionTime = 10.47 s  ClockTime = 10 s

forceCoeffs forceCoeffs_cl execute:
    Coefficients
        Cd       : -0.0615346	(pressure: -0.077512719	viscous: 0.015978119)
        Cs       : 0.00015899501	(pressure: 0.0001571477	viscous: 1.8473123e-06)
        Cl       : -9.5355774e-05	(pressure: -9.9008095e-05	viscous: 3.6523206e-06)
        CmRoll       : 2.3222309e-08	(pressure: 1.1383849e-08	viscous: 1.183846e-08)
        CmPitch       : -1.9119963e-05	(pressure: -2.0509166e-05	viscous: 1.3892033e-06)
        CmYaw       : -2.6145716e-05	(pressure: -2.5022209e-05	viscous: -1.1235065e-06)
        Cd(f)    : -0.030767277
        Cd(r)    : -0.030767323
        Cs(f)    : 5.335179e-05
        Cs(r)    : 0.00010564322
        Cl(f)    : -6.679785e-05
        Cl(r)    : -2.8557924e-05
forceCoeffs forceCoeffs_cd execute:
    Coefficients
        Cd       : -0.26139434	(pressure: -0.32926819	viscous: 0.067873845)
        Cs       : 0.00067539882	(pressure: 0.00066755158	viscous: 7.8472433e-06)
        Cl       : -0.00040506414	(pressure: -0.00042057892	viscous: 1.5514782e-05)
        CmRoll       : 9.864662e-08	(pressure: 4.8357733e-08	viscous: 5.0288886e-08)
        CmPitch       : -8.1220162e-05	(pressure: -8.7121393e-05	viscous: 5.901231e-06)
        CmYaw       : -0.00011106503	(pressure: -0.00010629246	viscous: -4.7725708e-06)
        Cd(f)    : -0.13069707
        Cd(r)    : -0.13069727
        Cs(f)    : 0.00022663438
        Cs(r)    : 0.00044876444
        Cl(f)    : -0.00028375223
        Cl(r)    : -0.00012131191
forces force_computation write:
    Sum of forces
        Total    : (-110.95973 -0.17194636 -0.28670119)
        Pressure : (-139.77161 -0.17853226 -0.2833701)
        Viscous  : (28.811883 0.0065858962 -0.0033310896)
    Sum of moments
        Total    : (0.00015573191 -0.17533666 0.12822103)
        Pressure : (7.6341615e-05 -0.16780228 0.13753721)
        Viscous  : (7.9390297e-05 -0.0075343847 -0.0093161832)


Time = 19

smoothSolver:  Solving for Ux, Initial residual = 0.0051336058, Final residual = 0.00018269403, No Iterations 2
smoothSolver:  Solving for Uy, Initial residual = 0.031436765, Final residual = 0.0012470326, No Iterations 2
smoothSolver:  Solving for Uz, Initial residual = 0.031441786, Final residual = 0.0012455739, No Iterations 2
GAMG:  Solving for p, Initial residual = 0.025298049, Final residual = 0.00016132915, No Iterations 4
GAMG:  Solving for p, Initial residual = 0.0041191575, Final residual = 3.7276091e-05, No Iterations 3
GAMG:  Solving for p, Initial residual = 0.0005171805, Final residual = 2.6080944e-06, No Iterations 4
GAMG:  Solving for p, Initial residual = 9.3945043e-05, Final residual = 6.2953305e-07, No Iterations 3
GAMG:  Solving for p, Initial residual = 1.876046e-05, Final residual = 1.5403339e-07, No Iterations 3
GAMG:  Solving for p, Initial residual = 4.5609552e-06, Final residual = 8.1109098e-08, No Iterations 2
time step continuity errors : sum local = 2.7821881e-09, global = -6.3833295e-10, cumulative = 3.8550366e-09
smoothSolver:  Solving for omega, Initial residual = 0.0023278329, Final residual = 0.0002035921, No Iterations 2
smoothSolver:  Solving for k, Initial residual = 0.0041718484, Final residual = 0.00035299742, No Iterations 2
ExecutionTime = 11.04 s  ClockTime = 11 s

forceCoeffs forceCoeffs_cl execute:
    Coefficients
        Cd       : -0.064461003	(pressure: -0.080208834	viscous: 0.015747832)
        Cs       : 2.397825e-05	(pressure: 2.2212349e-05	viscous: 1.7659015e-06)
        Cl       : -0.00019854341	(pressure: -0.00020124144	viscous: 2.6980296e-06)
        CmRoll       : 8.5844878e-09	(pressure: 1.0946279e-08	viscous: -2.3617912e-09)
        CmPitch       : -5.7994283e-05	(pressure: -5.8971492e-05	viscous: 9.7720954e-07)
        CmYaw       : -9.055201e-06	(pressure: -7.9897585e-06	viscous: -1.0654425e-06)
        Cd(f)    : -0.032230493
        Cd(r)    : -0.03223051
        Cs(f)    : 2.9339241e-06
        Cs(r)    : 2.1044326e-05
        Cl(f)    : -0.00015726599
        Cl(r)    : -4.1277421e-05
forceCoeffs forceCoeffs_cd execute:
    Coefficients
        Cd       : -0.27382548	(pressure: -0.34072108	viscous: 0.066895601)
        Cs       : 0.0001018578	(pressure: 9.4356383e-05	viscous: 7.5014165e-06)
        Cl       : -0.00084339743	(pressure: -0.00085485846	viscous: 1.1461026e-05)
        CmRoll       : 3.6466257e-08	(pressure: 4.6498968e-08	viscous: -1.0032711e-08)
        CmPitch       : -0.00024635534	(pressure: -0.00025050645	viscous: 4.1511125e-06)
        CmYaw       : -3.8465811e-05	(pressure: -3.3939892e-05	viscous: -4.5259196e-06)
        Cd(f)    : -0.1369127
        Cd(r)    : -0.13691278
        Cs(f)    : 1.2463088e-05
        Cs(r)    : 8.9394711e-05
        Cl(f)    : -0.00066805406
        Cl(r)    : -0.00017534337
forces force_computation write:
    Sum of forces
        Total    : (-116.23664 -0.3580152 -0.04323779)
        Pressure : (-144.63327 -0.36288031 -0.040053501)
        Viscous  : (28.396627 0.0048651104 -0.003184289)
    Sum of moments
        Total    : (5.7568723e-05 -0.060725389 0.38891742)
        Pressure : (7.3407211e-05 -0.053580389 0.39547071)
        Viscous  : (-1.5838488e-05 -0.0071450001 -0.0065532978)


Time = 20

smoothSolver:  Solving for Ux, Initial residual = 0.0047592453, Final residual = 0.00016834092, No Iterations 2
smoothSolver:  Solving for Uy, Initial residual = 0.024666851, Final residual = 0.0010462003, No Iterations 2
smoothSolver:  Solving for Uz, Initial residual = 0.02466924, Final residual = 0.0010469728, No Iterations 2
GAMG:  Solving for p, Initial residual = 0.02786928, Final residual = 0.00024752139, No Iterations 4
GAMG:  Solving for p, Initial residual = 0.0070730411, Final residual = 3.5991409e-05, No Iterations 4
GAMG:  Solving for p, Initial residual = 0.00093883315, Final residual = 6.1346239e-06, No Iterations 3
GAMG:  Solving for p, Initial residual = 0.00016079344, Final residual = 1.5478917e-06, No Iterations 3
GAMG:  Solving for p, Initial residual = 3.6330954e-05, Final residual = 2.6433048e-07, No Iterations 3
GAMG:  Solving for p, Initial residual = 8.7044558e-06, Final residual = 8.27278e-08, No Iterations 3
time step continuity errors : sum local = 1.8707947e-09, global = -9.3995844e-11, cumulative = 3.7610407e-09
smoothSolver:  Solving for omega, Initial residual = 0.0021085174, Final residual = 0.00018751285, No Iterations 2
smoothSolver:  Solving for k, Initial residual = 0.0038164433, Final residual = 0.00032305592, No Iterations 2
ExecutionTime = 11.57 s  ClockTime = 12 s

forceCoeffs forceCoeffs_cl execute:
    Coefficients
        Cd       : 0.010864049	(pressure: -0.0046930374	viscous: 0.015557086)
        Cs       : -8.1311953e-05	(pressure: -8.3145991e-05	viscous: 1.8340387e-06)
        Cl       : -0.0002199631	(pressure: -0.00022155253	viscous: 1.5894313e-06)
        CmRoll       : -4.351338e-09	(pressure: 1.0798855e-08	viscous: -1.5150193e-08)
        CmPitch       : -7.3323043e-05	(pressure: -7.3797904e-05	viscous: 4.7486057e-07)
        CmYaw       : 5.8436402e-06	(pressure: 6.9069389e-06	viscous: -1.0632987e-06)
        Cd(f)    : 0.0054320201
        Cd(r)    : 0.0054320288
        Cs(f)    : -3.4812336e-05
        Cs(r)    : -4.6499616e-05
        Cl(f)    : -0.00018330459
        Cl(r)    : -3.6658506e-05
forceCoeffs forceCoeffs_cd execute:
    Coefficients
        Cd       : 0.046149661	(pressure: -0.019935669	viscous: 0.06608533)
        Cs       : -0.00034540704	(pressure: -0.0003531979	viscous: 7.7908582e-06)
        Cl       : -0.00093438666	(pressure: -0.00094113844	viscous: 6.7517842e-06)
        CmRoll       : -1.8484156e-08	(pressure: 4.587272e-08	viscous: -6.4356876e-08)
        CmPitch       : -0.00031147076	(pressure: -0.00031348793	viscous: 2.0171719e-06)
        CmYaw       : 2.4823343e-05	(pressure: 2.9340156e-05	viscous: -4.5168125e-06)
        Cd(f)    : 0.023074812
        Cd(r)    : 0.023074849
        Cs(f)    : -0.00014788018
        Cs(r)    : -0.00019752687
        Cl(f)    : -0.00077866409
        Cl(r)    : -0.00015572257
forces force_computation write:
    Sum of forces
        Total    : (19.590148 -0.39663937 0.14662242)
        Pressure : (-8.462526 -0.39950545 0.14992958)
        Viscous  : (28.052674 0.0028660763 -0.0033071546)
    Sum of moments
        Total    : (-2.9180654e-05 0.039188233 0.49171413)
        Pressure : (7.2418563e-05 0.046318856 0.49489861)
        Viscous  : (-0.00010159922 -0.007130623 -0.0031844785)


Time = 21

smoothSolver:  Solving for Ux, Initial residual = 0.0040518488, Final residual = 0.00014164165, No Iterations 2
smoothSolver:  Solving for Uy, Initial residual = 0.019016234, Final residual = 0.00079591265, No Iterations 2
smoothSolver:  Solving for Uz, Initial residual = 0.019013497, Final residual = 0.00079751882, No Iterations 2
GAMG:  Solving for p, Initial residual = 0.027422854, Final residual = 0.00022323945, No Iterations 4
GAMG:  Solving for p, Initial residual = 0.0046778369, Final residual = 4.5886018e-05, No Iterations 3
GAMG:  Solving for p, Initial residual = 0.00059570156, Final residual = 2.9430438e-06, No Iterations 4
GAMG:  Solving for p, Initial residual = 0.00011257987, Final residual = 7.6515561e-07, No Iterations 3
GAMG:  Solving for p, Initial residual = 2.315879e-05, Final residual = 1.7906157e-07, No Iterations 3
GAMG:  Solving for p, Initial residual = 5.8471138e-06, Final residual = 9.7478229e-08, No Iterations 2
time step continuity errors : sum local = 2.8184151e-09, global = -1.1253045e-10, cumulative = 3.6485103e-09
smoothSolver:  Solving for omega, Initial residual = 0.0019171404, Final residual = 0.00017334411, No Iterations 2
smoothSolver:  Solving for k, Initial residual = 0.0034991327, Final residual = 0.0002965766, No Iterations 2
ExecutionTime = 12.11 s  ClockTime = 12 s

forceCoeffs forceCoeffs_cl execute:
    Coefficients
        Cd       : 0.086423294	(pressure: 0.071041336	viscous: 0.015381958)
        Cs       : -8.6566465e-05	(pressure: -8.8482177e-05	viscous: 1.9157115e-06)
        Cl       : -0.00014309346	(pressure: -0.00014403628	viscous: 9.4281976e-07)
        CmRoll       : -1.7676752e-08	(pressure: 1.1623389e-08	viscous: -2.9300141e-08)
        CmPitch       : -5.1123961e-05	(pressure: -5.1279698e-05	viscous: 1.557369e-07)
        CmYaw       : 8.8547492e-06	(pressure: 9.9602598e-06	viscous: -1.1055106e-06)
        Cd(f)    : 0.043211629
        Cd(r)    : 0.043211665
        Cs(f)    : -3.4428483e-05
        Cs(r)    : -5.2137982e-05
        Cl(f)    : -0.00012267069
        Cl(r)    : -2.0422771e-05
forceCoeffs forceCoeffs_cd execute:
    Coefficients
        Cd       : 0.36711964	(pressure: 0.30177824	viscous: 0.065341397)
        Cs       : -0.00036772782	(pressure: -0.00037586562	viscous: 8.1377982e-06)
        Cl       : -0.00060785025	(pressure: -0.00061185528	viscous: 4.0050272e-06)
        CmRoll       : -7.508951e-08	(pressure: 4.9375279e-08	viscous: -1.2446479e-07)
        CmPitch       : -0.00021717073	(pressure: -0.00021783229	viscous: 6.6155862e-07)
        CmYaw       : 3.7614307e-05	(pressure: 4.2310433e-05	viscous: -4.6961257e-06)
        Cd(f)    : 0.18355974
        Cd(r)    : 0.18355989
        Cs(f)    : -0.0001462496
        Cs(r)    : -0.00022147822
        Cl(f)    : -0.00052109586
        Cl(r)    : -8.6754393e-05
forces force_computation write:
    Sum of forces
        Total    : (155.83924 -0.25802738 0.1560974)
        Pressure : (128.10236 -0.25972748 0.15955183)
        Viscous  : (27.73688 0.0017001008 -0.0034544277)
    Sum of moments
        Total    : (-0.00011854266 0.059381132 0.34284412)
        Pressure : (7.7947998e-05 0.066794834 0.34388851)
        Viscous  : (-0.00019649066 -0.0074137019 -0.0010443925)


Time = 22

smoothSolver:  Solving for Ux, Initial residual = 0.00393342, Final residual = 0.00013962201, No Iterations 2
smoothSolver:  Solving for Uy, Initial residual = 0.020001345, Final residual = 0.00079387526, No Iterations 2
smoothSolver:  Solving for Uz, Initial residual = 0.019995658, Final residual = 0.00079165464, No Iterations 2
GAMG:  Solving for p, Initial residual = 0.024226633, Final residual = 0.00014850228, No Iterations 4
GAMG:  Solving for p, Initial residual = 0.0022806696, Final residual = 1.8622525e-05, No Iterations 3
GAMG:  Solving for p, Initial residual = 0.0002696135, Final residual = 1.2717417e-06, No Iterations 4
GAMG:  Solving for p, Initial residual = 5.4883612e-05, Final residual = 3.1454574e-07, No Iterations 3
GAMG:  Solving for p, Initial residual = 1.1215705e-05, Final residual = 8.4417395e-08, No Iterations 3
GAMG:  Solving for p, Initial residual = 3.008325e-06, Final residual = 4.3770932e-08, No Iterations 2
time step continuity errors : sum local = 1.8993262e-09, global = 4.8180804e-10, cumulative = 4.1303183e-09
smoothSolver:  Solving for omega, Initial residual = 0.0017509994, Final residual = 0.00016084798, No Iterations 2
smoothSolver:  Solving for k, Initial residual = 0.0032205951, Final residual = 0.00027338363, No Iterations 2
ExecutionTime = 12.64 s  ClockTime = 13 s

forceCoeffs forceCoeffs_cl execute:
    Coefficients
        Cd       : 0.11073321	(pressure: 0.095535208	viscous: 0.015198002)
        Cs       : -5.7635599e-06	(pressure: -7.9001427e-06	viscous: 2.1365828e-06)
        Cl       : -6.5892755e-05	(pressure: -6.6692442e-05	viscous: 7.9968702e-07)
        CmRoll       : -2.8504043e-08	(pressure: 1.3175345e-08	viscous: -4.1679388e-08)
        CmPitch       : -2.1548943e-05	(pressure: -2.1614736e-05	viscous: 6.5792647e-08)
        CmYaw       : -1.02869e-06	(pressure: 1.7486424e-07	viscous: -1.2035542e-06)
        Cd(f)    : 0.055366577
        Cd(r)    : 0.055366634
        Cs(f)    : -3.9104699e-06
        Cs(r)    : -1.85309e-06
        Cl(f)    : -5.4495321e-05
        Cl(r)    : -1.1397434e-05
forceCoeffs forceCoeffs_cd execute:
    Coefficients
        Cd       : 0.47038633	(pressure: 0.40582636	viscous: 0.064559967)
        Cs       : -2.4483168e-05	(pressure: -3.3559211e-05	viscous: 9.0760427e-06)
        Cl       : -0.00027990746	(pressure: -0.00028330447	viscous: 3.3970102e-06)
        CmRoll       : -1.2108303e-07	(pressure: 5.5967871e-08	viscous: -1.770509e-07)
        CmPitch       : -9.1538286e-05	(pressure: -9.1817768e-05	viscous: 2.794822e-07)
        CmYaw       : -4.3697975e-06	(pressure: 7.4281013e-07	viscous: -5.1126077e-06)
        Cd(f)    : 0.23519304
        Cd(r)    : 0.23519329
        Cs(f)    : -1.6611381e-05
        Cs(r)    : -7.8717864e-06
        Cl(f)    : -0.00023149201
        Cl(r)    : -4.8415442e-05
forces force_computation write:
    Sum of forces
        Total    : (199.67509 -0.11881839 0.010392901)
        Pressure : (172.26992 -0.12026039 0.014245606)
        Viscous  : (27.40517 0.0014420026 -0.0038527047)
    Sum of moments
        Total    : (-0.00019115192 -0.0068985326 0.14451009)
        Pressure : (8.8355624e-05 0.001172663 0.14495131)
        Viscous  : (-0.00027950755 -0.0080711956 -0.00044121429)


Time = 23

smoothSolver:  Solving for Ux, Initial residual = 0.0037235486, Final residual = 0.00013624935, No Iterations 2
smoothSolver:  Solving for Uy, Initial residual = 0.017386418, Final residual = 0.00067310528, No Iterations 2
smoothSolver:  Solving for Uz, Initial residual = 0.017394973, Final residual = 0.00067296628, No Iterations 2
GAMG:  Solving for p, Initial residual = 0.024165986, Final residual = 0.00016005198, No Iterations 4
GAMG:  Solving for p, Initial residual = 0.0017702915, Final residual = 8.5124147e-06, No Iterations 4
GAMG:  Solving for p, Initial residual = 0.00022399633, Final residual = 1.6090077e-06, No Iterations 3
GAMG:  Solving for p, Initial residual = 3.8114703e-05, Final residual = 3.3768922e-07, No Iterations 3
GAMG:  Solving for p, Initial residual = 8.82849e-06, Final residual = 6.5217543e-08, No Iterations 3
GAMG:  Solving for p, Initial residual = 2.1621334e-06, Final residual = 3.6038939e-08, No Iterations 2
time step continuity errors : sum local = 1.9142335e-09, global = -1.252196e-11, cumulative = 4.1177964e-09
smoothSolver:  Solving for omega, Initial residual = 0.0016072694, Final residual = 0.00014973402, No Iterations 2
smoothSolver:  Solving for k, Initial residual = 0.0029591367, Final residual = 0.00025180287, No Iterations 2
ExecutionTime = 13.19 s  ClockTime = 13 s

forceCoeffs forceCoeffs_cl execute:
    Coefficients
        Cd       : 0.084757334	(pressure: 0.069761947	viscous: 0.014995387)
        Cs       : 8.8632216e-05	(pressure: 8.6217757e-05	viscous: 2.4144596e-06)
        Cl       : -6.0401113e-05	(pressure: -6.1258453e-05	viscous: 8.5734016e-07)
        CmRoll       : -3.5533587e-08	(pressure: 1.4728823e-08	viscous: -5.026241e-08)
        CmPitch       : -1.1058606e-05	(pressure: -1.1133401e-05	viscous: 7.4795361e-08)
        CmYaw       : -1.3252363e-05	(pressure: -1.1937089e-05	viscous: -1.3152739e-06)
        Cd(f)    : 0.042378631
        Cd(r)    : 0.042378703
        Cs(f)    : 3.1063746e-05
        Cs(r)    : 5.7568471e-05
        Cl(f)    : -4.1259162e-05
        Cl(r)    : -1.9141951e-05
forceCoeffs forceCoeffs_cd execute:
    Coefficients
        Cd       : 0.36004277	(pressure: 0.29634349	viscous: 0.063699274)
        Cs       : 0.00037650297	(pressure: 0.00036624653	viscous: 1.0256442e-05)
        Cl       : -0.00025657937	(pressure: -0.00026022129	viscous: 3.6419164e-06)
        CmRoll       : -1.50944e-07	(pressure: 6.2566928e-08	viscous: -2.1351093e-07)
        CmPitch       : -4.6976123e-05	(pressure: -4.7293848e-05	viscous: 3.1772506e-07)
        CmYaw       : -5.6295037e-05	(pressure: -5.0707852e-05	viscous: -5.5871845e-06)
        Cd(f)    : 0.18002123
        Cd(r)    : 0.18002153
        Cs(f)    : 0.00013195645
        Cs(r)    : 0.00024454652
        Cl(f)    : -0.00017526581
        Cl(r)    : -8.1313564e-05
forces force_computation write:
    Sum of forces
        Total    : (152.83516 -0.10891581 -0.15982238)
        Pressure : (125.79535 -0.11046178 -0.15546861)
        Viscous  : (27.039813 0.0015459632 -0.0043537745)
    Sum of moments
        Total    : (-0.00023829299 -0.088872115 0.074160487)
        Pressure : (9.8773453e-05 -0.080051712 0.074662075)
        Viscous  : (-0.00033706644 -0.0088204029 -0.00050158769)


Time = 24

smoothSolver:  Solving for Ux, Initial residual = 0.0033075515, Final residual = 0.0001206957, No Iterations 2
smoothSolver:  Solving for Uy, Initial residual = 0.0125751, Final residual = 0.00044663511, No Iterations 2
smoothSolver:  Solving for Uz, Initial residual = 0.012577035, Final residual = 0.00044828985, No Iterations 2
GAMG:  Solving for p, Initial residual = 0.019884363, Final residual = 0.00013363499, No Iterations 4
GAMG:  Solving for p, Initial residual = 0.0016064394, Final residual = 7.4919842e-06, No Iterations 4
GAMG:  Solving for p, Initial residual = 0.00021344461, Final residual = 1.513367e-06, No Iterations 3
GAMG:  Solving for p, Initial residual = 3.6785081e-05, Final residual = 3.5261103e-07, No Iterations 3
GAMG:  Solving for p, Initial residual = 8.7801916e-06, Final residual = 7.0450611e-08, No Iterations 3
GAMG:  Solving for p, Initial residual = 2.1343332e-06, Final residual = 3.9293358e-08, No Iterations 2
time step continuity errors : sum local = 2.0486959e-09, global = -1.3638936e-10, cumulative = 3.981407e-09
smoothSolver:  Solving for omega, Initial residual = 0.0014845214, Final residual = 0.00013992384, No Iterations 2
smoothSolver:  Solving for k, Initial residual = 0.0027311774, Final residual = 0.00023273827, No Iterations 2
ExecutionTime = 13.73 s  ClockTime = 14 s

forceCoeffs forceCoeffs_cl execute:
    Coefficients
        Cd       : 0.04298222	(pressure: 0.028199389	viscous: 0.014782831)
        Cs       : 0.00012830476	(pressure: 0.00012570247	viscous: 2.6022898e-06)
        Cl       : -0.00011494327	(pressure: -0.00011578835	viscous: 8.4507855e-07)
        CmRoll       : -3.9385835e-08	(pressure: 1.5629688e-08	viscous: -5.5015523e-08)
        CmPitch       : -2.5116786e-05	(pressure: -2.5196999e-05	viscous: 8.0213061e-08)
        CmYaw       : -1.7032958e-05	(pressure: -1.5592294e-05	viscous: -1.4406639e-06)
        Cd(f)    : 0.021491071
        Cd(r)    : 0.021491149
        Cs(f)    : 4.7119423e-05
        Cs(r)    : 8.1185339e-05
        Cl(f)    : -8.2588421e-05
        Cl(r)    : -3.2354848e-05
forceCoeffs forceCoeffs_cd execute:
    Coefficients
        Cd       : 0.18258523	(pressure: 0.11978888	viscous: 0.06279635)
        Cs       : 0.00054502896	(pressure: 0.00053397463	viscous: 1.1054331e-05)
        Cl       : -0.00048827034	(pressure: -0.00049186017	viscous: 3.58983e-06)
        CmRoll       : -1.6730806e-07	(pressure: 6.6393736e-08	viscous: -2.337018e-07)
[...]
smoothSolver:  Solving for Uy, Initial residual = 0.00021174555, Final residual = 6.7806457e-06, No Iterations 2
smoothSolver:  Solving for Uz, Initial residual = 0.00020423939, Final residual = 6.6012161e-06, No Iterations 2
GAMG:  Solving for p, Initial residual = 0.00010288265, Final residual = 7.2031579e-07, No Iterations 3
GAMG:  Solving for p, Initial residual = 7.9261765e-06, Final residual = 8.8617371e-08, No Iterations 3
GAMG:  Solving for p, Initial residual = 1.0875463e-06, Final residual = 7.6387935e-08, No Iterations 1
GAMG:  Solving for p, Initial residual = 2.1612048e-07, Final residual = 3.6346459e-08, No Iterations 1
GAMG:  Solving for p, Initial residual = 7.7426494e-08, Final residual = 7.7426494e-08, No Iterations 0
GAMG:  Solving for p, Initial residual = 7.7426494e-08, Final residual = 7.7426494e-08, No Iterations 0
time step continuity errors : sum local = 3.243485e-09, global = -1.0683492e-10, cumulative = 3.7555089e-08
smoothSolver:  Solving for omega, Initial residual = 2.2053e-06, Final residual = 1.1114074e-07, No Iterations 2
smoothSolver:  Solving for k, Initial residual = 1.7125483e-05, Final residual = 1.0160972e-06, No Iterations 2
ExecutionTime = 215.23 s  ClockTime = 215 s

forceCoeffs forceCoeffs_cl execute:
    Coefficients
        Cd       : 0.045151976	(pressure: 0.035733461	viscous: 0.0094185152)
        Cs       : -0.010935413	(pressure: -0.010918168	viscous: -1.7245202e-05)
        Cl       : 0.012230796	(pressure: 0.012217377	viscous: 1.3418519e-05)
        CmRoll       : 6.6791e-07	(pressure: 1.803482e-08	viscous: 6.4987518e-07)
        CmPitch       : -0.0037586106	(pressure: -0.0037617367	viscous: 3.1261645e-06)
        CmYaw       : -0.003285477	(pressure: -0.003287351	viscous: 1.874045e-06)
        Cd(f)    : 0.022576656
        Cd(r)    : 0.02257532
        Cs(f)    : -0.0087531833
        Cs(r)    : -0.0021822294
        Cl(f)    : 0.0023567873
        Cl(r)    : 0.0098740084
forceCoeffs forceCoeffs_cd execute:
    Coefficients
        Cd       : 0.19180219	(pressure: 0.15179305	viscous: 0.040009143)
        Cs       : -0.046452809	(pressure: -0.046379552	viscous: -7.3256317e-05)
        Cl       : 0.051955498	(pressure: 0.051898497	viscous: 5.7000858e-05)
        CmRoll       : 2.8372313e-06	(pressure: 7.6610555e-08	viscous: 2.7606208e-06)
        CmPitch       : -0.015966294	(pressure: -0.015979574	viscous: 1.3279711e-05)
        CmYaw       : -0.013956459	(pressure: -0.013964419	viscous: 7.960802e-06)
        Cd(f)    : 0.095903932
        Cd(r)    : 0.095898258
        Cs(f)    : -0.037182863
        Cs(r)    : -0.0092699458
        Cl(f)    : 0.010011455
        Cl(r)    : 0.041944043
forces force_computation write:
    Sum of forces
        Total    : (81.418436 22.054677 19.718831)
        Pressure : (64.434887 22.030481 19.687735)
        Viscous  : (16.983549 0.024196391 0.031096698)
    Sum of moments
        Total    : (0.0044790937 -22.032848 25.205745)
        Pressure : (0.00012094391 -22.045416 25.22671)
        Viscous  : (0.0043581498 0.012567597 -0.020964477)


Time = 459

smoothSolver:  Solving for Ux, Initial residual = 1.8582061e-05, Final residual = 6.5037094e-07, No Iterations 2
smoothSolver:  Solving for Uy, Initial residual = 0.00021349141, Final residual = 6.8403796e-06, No Iterations 2
smoothSolver:  Solving for Uz, Initial residual = 0.00020637555, Final residual = 6.699668e-06, No Iterations 2
GAMG:  Solving for p, Initial residual = 0.00010332049, Final residual = 7.3214451e-07, No Iterations 3
GAMG:  Solving for p, Initial residual = 8.0128357e-06, Final residual = 9.0549042e-08, No Iterations 3
GAMG:  Solving for p, Initial residual = 1.0999015e-06, Final residual = 7.7680402e-08, No Iterations 1
GAMG:  Solving for p, Initial residual = 2.1990993e-07, Final residual = 3.7336588e-08, No Iterations 1
GAMG:  Solving for p, Initial residual = 7.9409063e-08, Final residual = 7.9409063e-08, No Iterations 0
GAMG:  Solving for p, Initial residual = 7.9409063e-08, Final residual = 7.9409063e-08, No Iterations 0
time step continuity errors : sum local = 3.3265958e-09, global = -1.1254085e-10, cumulative = 3.7442548e-08
smoothSolver:  Solving for omega, Initial residual = 2.3300982e-06, Final residual = 1.120805e-07, No Iterations 2
smoothSolver:  Solving for k, Initial residual = 1.7318654e-05, Final residual = 1.0297442e-06, No Iterations 2
ExecutionTime = 215.63 s  ClockTime = 216 s

forceCoeffs forceCoeffs_cl execute:
    Coefficients
        Cd       : 0.045154159	(pressure: 0.035735498	viscous: 0.0094186609)
        Cs       : -0.010889444	(pressure: -0.010872237	viscous: -1.7207632e-05)
        Cl       : 0.012282184	(pressure: 0.012268719	viscous: 1.3464521e-05)
        CmRoll       : 6.7311859e-07	(pressure: 1.8035359e-08	viscous: 6.5508324e-07)
        CmPitch       : -0.0037742625	(pressure: -0.0037774102	viscous: 3.1476857e-06)
        CmYaw       : -0.0032711459	(pressure: -0.0032730153	viscous: 1.8693936e-06)
        Cd(f)    : 0.022577753
        Cd(r)    : 0.022576407
        Cs(f)    : -0.0087158682
        Cs(r)    : -0.0021735763
        Cl(f)    : 0.0023668293
        Cl(r)    : 0.0099153543
forceCoeffs forceCoeffs_cd execute:
    Coefficients
        Cd       : 0.19181146	(pressure: 0.1518017	viscous: 0.040009762)
        Cs       : -0.046257539	(pressure: -0.046184442	viscous: -7.3096723e-05)
        Cl       : 0.05217379	(pressure: 0.052116594	viscous: 5.7196268e-05)
        CmRoll       : 2.859357e-06	(pressure: 7.6612844e-08	viscous: 2.7827442e-06)
        CmPitch       : -0.016032782	(pressure: -0.016046154	viscous: 1.3371131e-05)
        CmYaw       : -0.013895581	(pressure: -0.013903522	viscous: 7.9410429e-06)
        Cd(f)    : 0.095908592
        Cd(r)    : 0.095902873
        Cs(f)    : -0.037024351
        Cs(r)    : -0.0092331884
        Cl(f)    : 0.010054113
        Cl(r)    : 0.042119678
forces force_computation write:
    Sum of forces
        Total    : (81.422373 22.14734 19.635941)
        Pressure : (64.438562 22.123061 19.604912)
        Viscous  : (16.983811 0.024279341 0.031028951)
    Sum of moments
        Total    : (0.0045140233 -21.936742 25.310709)
        Pressure : (0.00012094753 -21.949278 25.331818)
        Viscous  : (0.0043930758 0.012536403 -0.021108801)


Time = 460

smoothSolver:  Solving for Ux, Initial residual = 1.8801028e-05, Final residual = 6.5880272e-07, No Iterations 2
smoothSolver:  Solving for Uy, Initial residual = 0.00021537421, Final residual = 6.9097562e-06, No Iterations 2
smoothSolver:  Solving for Uz, Initial residual = 0.00020879164, Final residual = 6.8076415e-06, No Iterations 2
GAMG:  Solving for p, Initial residual = 0.00010369951, Final residual = 7.443247e-07, No Iterations 3
GAMG:  Solving for p, Initial residual = 8.1266408e-06, Final residual = 9.2457622e-08, No Iterations 3
GAMG:  Solving for p, Initial residual = 1.1169972e-06, Final residual = 7.8593304e-08, No Iterations 1
GAMG:  Solving for p, Initial residual = 2.2235119e-07, Final residual = 3.804096e-08, No Iterations 1
GAMG:  Solving for p, Initial residual = 8.0637398e-08, Final residual = 8.0637398e-08, No Iterations 0
GAMG:  Solving for p, Initial residual = 8.0637398e-08, Final residual = 8.0637398e-08, No Iterations 0
time step continuity errors : sum local = 3.3781086e-09, global = -1.2208143e-10, cumulative = 3.7320467e-08
smoothSolver:  Solving for omega, Initial residual = 2.2303812e-06, Final residual = 1.1309835e-07, No Iterations 2
smoothSolver:  Solving for k, Initial residual = 1.7517641e-05, Final residual = 1.0441596e-06, No Iterations 2
ExecutionTime = 216.03 s  ClockTime = 216 s

forceCoeffs forceCoeffs_cl execute:
    Coefficients
        Cd       : 0.045156016	(pressure: 0.035737207	viscous: 0.0094188092)
        Cs       : -0.010842394	(pressure: -0.010825226	viscous: -1.716846e-05)
        Cl       : 0.012333501	(pressure: 0.01231999	viscous: 1.3511595e-05)
        CmRoll       : 6.7831673e-07	(pressure: 1.8034867e-08	viscous: 6.6028186e-07)
        CmPitch       : -0.0037898966	(pressure: -0.0037930653	viscous: 3.1687402e-06)
        CmYaw       : -0.0032565041	(pressure: -0.0032583688	viscous: 1.8647669e-06)
        Cd(f)    : 0.022578687
        Cd(r)    : 0.02257733
        Cs(f)    : -0.0086777012
        Cs(r)    : -0.0021646931
        Cl(f)    : 0.0023768541
        Cl(r)    : 0.0099566473
forceCoeffs forceCoeffs_cd execute:
    Coefficients
        Cd       : 0.19181935	(pressure: 0.15180896	viscous: 0.040010392)
        Cs       : -0.046057674	(pressure: -0.045984743	viscous: -7.2930325e-05)
        Cl       : 0.052391784	(pressure: 0.052334388	viscous: 5.7396235e-05)
        CmRoll       : 2.8814383e-06	(pressure: 7.6610756e-08	viscous: 2.8048276e-06)
        CmPitch       : -0.016099195	(pressure: -0.016112656	viscous: 1.3460569e-05)
        CmYaw       : -0.013833384	(pressure: -0.013841305	viscous: 7.9213891e-06)
        Cd(f)    : 0.095912558
        Cd(r)    : 0.095906796
        Cs(f)    : -0.036862221
        Cs(r)    : -0.0091954531
        Cl(f)    : 0.010096697
        Cl(r)    : 0.042295087
forces force_computation write:
    Sum of forces
        Total    : (81.425722 22.239877 19.5511)
        Pressure : (64.441643 22.215513 19.520141)
        Viscous  : (16.984079 0.024364225 0.030958317)
    Sum of moments
        Total    : (0.0045488827 -21.838552 25.415553)
        Pressure : (0.00012094423 -21.851057 25.436803)
        Viscous  : (0.0044279384 0.012505376 -0.021249995)


Time = 461

smoothSolver:  Solving for Ux, Initial residual = 1.903598e-05, Final residual = 6.6716843e-07, No Iterations 2
smoothSolver:  Solving for Uy, Initial residual = 0.00021744128, Final residual = 6.9855531e-06, No Iterations 2
smoothSolver:  Solving for Uz, Initial residual = 0.00021142805, Final residual = 6.9214599e-06, No Iterations 2
GAMG:  Solving for p, Initial residual = 0.00010406311, Final residual = 7.564888e-07, No Iterations 3
GAMG:  Solving for p, Initial residual = 8.1566603e-06, Final residual = 9.4021235e-08, No Iterations 3
GAMG:  Solving for p, Initial residual = 1.1237514e-06, Final residual = 7.9136697e-08, No Iterations 1
GAMG:  Solving for p, Initial residual = 2.2406387e-07, Final residual = 3.8699192e-08, No Iterations 1
GAMG:  Solving for p, Initial residual = 8.1938719e-08, Final residual = 8.1938719e-08, No Iterations 0
GAMG:  Solving for p, Initial residual = 8.1938719e-08, Final residual = 8.1938719e-08, No Iterations 0
time step continuity errors : sum local = 3.4326769e-09, global = -1.3007955e-10, cumulative = 3.7190387e-08
smoothSolver:  Solving for omega, Initial residual = 2.1525965e-06, Final residual = 1.1419449e-07, No Iterations 2
smoothSolver:  Solving for k, Initial residual = 1.7753113e-05, Final residual = 1.0585083e-06, No Iterations 2
ExecutionTime = 216.43 s  ClockTime = 217 s

forceCoeffs forceCoeffs_cl execute:
    Coefficients
        Cd       : 0.045157549	(pressure: 0.035738589	viscous: 0.00941896)
        Cs       : -0.010794403	(pressure: -0.010777275	viscous: -1.7127594e-05)
        Cl       : 0.012384738	(pressure: 0.012371178	viscous: 1.3559771e-05)
        CmRoll       : 6.8351014e-07	(pressure: 1.8032777e-08	viscous: 6.6547736e-07)
        CmPitch       : -0.0038055079	(pressure: -0.0038086972	viscous: 3.1893049e-06)
        CmYaw       : -0.0032415994	(pressure: -0.0032434596	viscous: 1.860185e-06)
        Cd(f)    : 0.022579458
        Cd(r)    : 0.022578091
        Cs(f)    : -0.0086388007
        Cs(r)    : -0.0021556019
        Cl(f)    : 0.0023868609
        Cl(r)    : 0.0099978767
forceCoeffs forceCoeffs_cd execute:
    Coefficients
        Cd       : 0.19182586	(pressure: 0.15181483	viscous: 0.040011032)
        Cs       : -0.045853809	(pressure: -0.045781052	viscous: -7.2756729e-05)
        Cl       : 0.052609432	(pressure: 0.052551831	viscous: 5.7600885e-05)
        CmRoll       : 2.9034995e-06	(pressure: 7.6601876e-08	viscous: 2.8268977e-06)
        CmPitch       : -0.016165511	(pressure: -0.016179058	viscous: 1.3547927e-05)
        CmYaw       : -0.01377007	(pressure: -0.013777972	viscous: 7.9019258e-06)
        Cd(f)    : 0.095915835
        Cd(r)    : 0.095910028
        Cs(f)    : -0.036696974
        Cs(r)    : -0.0091568344
        Cl(f)    : 0.010139205
        Cl(r)    : 0.042470226
forces force_computation write:
    Sum of forces
        Total    : (81.428485 22.332267 19.464561)
        Pressure : (64.444135 22.307816 19.433676)
        Viscous  : (16.984351 0.024451097 0.030884627)
    Sum of moments
        Total    : (0.0045837104 -21.738599 25.520245)
        Pressure : (0.00012093021 -21.751074 25.541633)
        Viscous  : (0.0044627802 0.01247465 -0.021387905)


Time = 462

smoothSolver:  Solving for Ux, Initial residual = 1.9286013e-05, Final residual = 6.753529e-07, No Iterations 2
smoothSolver:  Solving for Uy, Initial residual = 0.00021969785, Final residual = 7.0640121e-06, No Iterations 2
smoothSolver:  Solving for Uz, Initial residual = 0.00021439162, Final residual = 7.0374647e-06, No Iterations 2
GAMG:  Solving for p, Initial residual = 0.0001044501, Final residual = 7.6945863e-07, No Iterations 3
GAMG:  Solving for p, Initial residual = 8.2028787e-06, Final residual = 9.5413887e-08, No Iterations 3
GAMG:  Solving for p, Initial residual = 1.1250882e-06, Final residual = 7.9145502e-08, No Iterations 1
GAMG:  Solving for p, Initial residual = 2.2432581e-07, Final residual = 3.9353919e-08, No Iterations 1
GAMG:  Solving for p, Initial residual = 8.3042177e-08, Final residual = 8.3042177e-08, No Iterations 0
GAMG:  Solving for p, Initial residual = 8.3042177e-08, Final residual = 8.3042177e-08, No Iterations 0
time step continuity errors : sum local = 3.4789529e-09, global = -1.3670941e-10, cumulative = 3.7053678e-08
smoothSolver:  Solving for omega, Initial residual = 2.0999654e-06, Final residual = 1.1535868e-07, No Iterations 2
smoothSolver:  Solving for k, Initial residual = 1.8022662e-05, Final residual = 1.0741503e-06, No Iterations 2
ExecutionTime = 216.83 s  ClockTime = 217 s

forceCoeffs forceCoeffs_cl execute:
    Coefficients
        Cd       : 0.045158751	(pressure: 0.035739638	viscous: 0.0094191127)
        Cs       : -0.01074562	(pressure: -0.010728535	viscous: -1.7085236e-05)
        Cl       : 0.012435876	(pressure: 0.012422267	viscous: 1.360907e-05)
        CmRoll       : 6.8870746e-07	(pressure: 1.802854e-08	viscous: 6.7067892e-07)
        CmPitch       : -0.0038210894	(pressure: -0.0038242987	viscous: 3.209364e-06)
        CmYaw       : -0.003226484	(pressure: -0.0032283396	viscous: 1.8555745e-06)
        Cd(f)    : 0.022580064
        Cd(r)    : 0.022578687
        Cs(f)    : -0.0085992942
        Cs(r)    : -0.0021463261
        Cl(f)    : 0.0023968487
        Cl(r)    : 0.010039027
forceCoeffs forceCoeffs_cd execute:
    Coefficients
        Cd       : 0.19183097	(pressure: 0.15181929	viscous: 0.040011681)
        Cs       : -0.045646585	(pressure: -0.045574008	viscous: -7.2576793e-05)
        Cl       : 0.052826665	(pressure: 0.052768854	viscous: 5.7810305e-05)
        CmRoll       : 2.9255774e-06	(pressure: 7.6583878e-08	viscous: 2.8489935e-06)
        CmPitch       : -0.0162317	(pressure: -0.016245333	viscous: 1.3633136e-05)
        CmYaw       : -0.013705861	(pressure: -0.013713743	viscous: 7.8823405e-06)
        Cd(f)    : 0.095918411
        Cd(r)    : 0.095912559
        Cs(f)    : -0.036529153
        Cs(r)    : -0.0091174314
        Cl(f)    : 0.010181633
        Cl(r)    : 0.042645032
forces force_computation write:
    Sum of forces
        Total    : (81.430653 22.42448 19.376596)
        Pressure : (64.446027 22.39994 19.345788)
        Viscous  : (16.984626 0.024539994 0.030808246)
    Sum of moments
        Total    : (0.0046185643 -21.637233 25.624736)
        Pressure : (0.0001209018 -21.649677 25.646259)
        Viscous  : (0.0044976625 0.012443731 -0.021522424)


Time = 463

smoothSolver:  Solving for Ux, Initial residual = 1.951887e-05, Final residual = 6.830217e-07, No Iterations 2
smoothSolver:  Solving for Uy, Initial residual = 0.00022209076, Final residual = 7.1459384e-06, No Iterations 2
smoothSolver:  Solving for Uz, Initial residual = 0.00021757386, Final residual = 7.157991e-06, No Iterations 2
GAMG:  Solving for p, Initial residual = 0.00010490746, Final residual = 7.8118175e-07, No Iterations 3
GAMG:  Solving for p, Initial residual = 8.2825368e-06, Final residual = 9.7045371e-08, No Iterations 3
GAMG:  Solving for p, Initial residual = 1.1386732e-06, Final residual = 7.9717913e-08, No Iterations 1
GAMG:  Solving for p, Initial residual = 2.2542995e-07, Final residual = 3.9992939e-08, No Iterations 1
GAMG:  Solving for p, Initial residual = 8.4322312e-08, Final residual = 8.4322312e-08, No Iterations 0
GAMG:  Solving for p, Initial residual = 8.4322312e-08, Final residual = 8.4322312e-08, No Iterations 0
time step continuity errors : sum local = 3.5326223e-09, global = -1.4690079e-10, cumulative = 3.6906777e-08
smoothSolver:  Solving for omega, Initial residual = 2.070265e-06, Final residual = 1.1654173e-07, No Iterations 2
smoothSolver:  Solving for k, Initial residual = 1.8298096e-05, Final residual = 1.0903659e-06, No Iterations 2
ExecutionTime = 217.26 s  ClockTime = 217 s

forceCoeffs forceCoeffs_cl execute:
    Coefficients
        Cd       : 0.045159571	(pressure: 0.035740304	viscous: 0.0094192672)
        Cs       : -0.010696228	(pressure: -0.010679187	viscous: -1.7041664e-05)
        Cl       : 0.012486929	(pressure: 0.012473269	viscous: 1.365961e-05)
        CmRoll       : 6.9392487e-07	(pressure: 1.8021547e-08	viscous: 6.7590332e-07)
        CmPitch       : -0.0038366433	(pressure: -0.0038398722	viscous: 3.2288588e-06)
        CmYaw       : -0.0032112174	(pressure: -0.0032130683	viscous: 1.8508166e-06)
        Cd(f)    : 0.022580479
        Cd(r)    : 0.022579092
        Cs(f)    : -0.0085593315
        Cs(r)    : -0.0021368967
        Cl(f)    : 0.002406821
        Cl(r)    : 0.010080108
forceCoeffs forceCoeffs_cd execute:
    Coefficients
        Cd       : 0.19183445	(pressure: 0.15182212	viscous: 0.040012337)
        Cs       : -0.045436771	(pressure: -0.045364379	viscous: -7.2391702e-05)
        Cl       : 0.053043532	(pressure: 0.052985507	viscous: 5.8024993e-05)
        CmRoll       : 2.9477405e-06	(pressure: 7.6554174e-08	viscous: 2.8711864e-06)
        CmPitch       : -0.016297772	(pressure: -0.016311488	viscous: 1.3715949e-05)
        CmYaw       : -0.01364101	(pressure: -0.013648872	viscous: 7.8621292e-06)
        Cd(f)    : 0.095920174
        Cd(r)    : 0.095914279
        Cs(f)    : -0.036359395
        Cs(r)    : -0.0090773759
        Cl(f)    : 0.010223994
        Cl(r)    : 0.042819537
forces force_computation write:
    Sum of forces
        Total    : (81.432132 22.516538 19.287532)
        Pressure : (64.447227 22.491907 19.256802)
        Viscous  : (16.984905 0.024631127 0.030729676)
    Sum of moments
        Total    : (0.004653553 -21.534853 25.729043)
        Pressure : (0.0001208549 -21.547265 25.750696)
        Viscous  : (0.004532698 0.012411823 -0.021653159)


Time = 464

smoothSolver:  Solving for Ux, Initial residual = 1.9785436e-05, Final residual = 6.9020565e-07, No Iterations 2
smoothSolver:  Solving for Uy, Initial residual = 0.00022459674, Final residual = 7.2299848e-06, No Iterations 2
smoothSolver:  Solving for Uz, Initial residual = 0.00022090971, Final residual = 7.2817882e-06, No Iterations 2
GAMG:  Solving for p, Initial residual = 0.00010542802, Final residual = 7.9011437e-07, No Iterations 3
GAMG:  Solving for p, Initial residual = 8.3187912e-06, Final residual = 9.8526266e-08, No Iterations 3
GAMG:  Solving for p, Initial residual = 1.1532392e-06, Final residual = 8.0153896e-08, No Iterations 1
GAMG:  Solving for p, Initial residual = 2.2780435e-07, Final residual = 4.0794117e-08, No Iterations 1
